74791
  -OEChem-06182211383D

 30 29  0     0  0  0  0  0  0999 V2000
    4.6823   -1.7566    0.2811 N   0  0  0  0  0  0  0  0  0  0  0  0
   -0.9988   -0.0063   -0.2620 C   0  0  0  0  0  0  0  0  0  0  0  0
    0.1991    0.7779    0.2837 C   0  0  0  0  0  0  0  0  0  0  0  0
   -2.3340    0.4214    0.3512 C   0  0  0  0  0  0  0  0  0  0  0  0
    1.5307    0.3658   -0.3495 C   0  0  0  0  0  0  0  0  0  0  0  0
   -3.4962   -0.3826   -0.2360 C   0  0  0  0  0  0  0  0  0  0  0  0
    2.7302    1.1591    0.1868 C   0  0  0  0  0  0  0  0  0  0  0  0
   -4.8346    0.0649    0.3512 C   0  0  0  0  0  0  0  0  0  0  0  0
    4.0944    0.7261   -0.3542 C   0  0  0  0  0  0  0  0  0  0  0  0
   -5.9950   -0.7087   -0.2542 C   0  0  0  0  0  0  0  0  0  0  0  0
    4.4219   -0.6609    0.0020 C   0  0  0  0  0  0  0  0  0  0  0  0
   -0.8409   -1.0760   -0.0766 H   0  0  0  0  0  0  0  0  0  0  0  0
   -1.0435    0.1231   -1.3506 H   0  0  0  0  0  0  0  0  0  0  0  0
    0.2563    0.6367    1.3700 H   0  0  0  0  0  0  0  0  0  0  0  0
    0.0361    1.8488    0.1112 H   0  0  0  0  0  0  0  0  0  0  0  0
   -2.3000    0.2822    1.4384 H   0  0  0  0  0  0  0  0  0  0  0  0
   -2.4940    1.4905    0.1662 H   0  0  0  0  0  0  0  0  0  0  0  0
    1.4734    0.4983   -1.4369 H   0  0  0  0  0  0  0  0  0  0  0  0
    1.6822   -0.7049   -0.1692 H   0  0  0  0  0  0  0  0  0  0  0  0
   -3.3443   -1.4502   -0.0357 H   0  0  0  0  0  0  0  0  0  0  0  0
   -3.5146   -0.2577   -1.3257 H   0  0  0  0  0  0  0  0  0  0  0  0
    2.7413    1.0833    1.2822 H   0  0  0  0  0  0  0  0  0  0  0  0
    2.5838    2.2203   -0.0500 H   0  0  0  0  0  0  0  0  0  0  0  0
   -4.8315   -0.0803    1.4377 H   0  0  0  0  0  0  0  0  0  0  0  0
   -4.9832    1.1354    0.1673 H   0  0  0  0  0  0  0  0  0  0  0  0
    4.8655    1.3948    0.0452 H   0  0  0  0  0  0  0  0  0  0  0  0
    4.1080    0.8390   -1.4443 H   0  0  0  0  0  0  0  0  0  0  0  0
   -5.8935   -1.7816   -0.0622 H   0  0  0  0  0  0  0  0  0  0  0  0
   -6.9418   -0.3737    0.1807 H   0  0  0  0  0  0  0  0  0  0  0  0
   -6.0458   -0.5564   -1.3371 H   0  0  0  0  0  0  0  0  0  0  0  0
  1 11  3  0  0  0  0
  2  3  1  0  0  0  0
  2  4  1  0  0  0  0
  2 12  1  0  0  0  0
  2 13  1  0  0  0  0
  3  5  1  0  0  0  0
  3 14  1  0  0  0  0
  3 15  1  0  0  0  0
  4  6  1  0  0  0  0
  4 16  1  0  0  0  0
  4 17  1  0  0  0  0
  5  7  1  0  0  0  0
  5 18  1  0  0  0  0
  5 19  1  0  0  0  0
  6  8  1  0  0  0  0
  6 20  1  0  0  0  0
  6 21  1  0  0  0  0
  7  9  1  0  0  0  0
  7 22  1  0  0  0  0
  7 23  1  0  0  0  0
  8 10  1  0  0  0  0
  8 24  1  0  0  0  0
  8 25  1  0  0  0  0
  9 11  1  0  0  0  0
  9 26  1  0  0  0  0
  9 27  1  0  0  0  0
 10 28  1  0  0  0  0
 10 29  1  0  0  0  0
 10 30  1  0  0  0  0
M  END
> <PUBCHEM_COMPOUND_CID>
74791

> <PUBCHEM_CONFORMER_RMSD>
0.6

> <PUBCHEM_CONFORMER_DIVERSEORDER>
1
299
113
110
2
396
23
405
300
48
33
34
225
394
38
392
282
403
172
68
44
401
233
103
116
156
20
272
112
267
364
84
352
241
69
170
52
176
184
132
53
35
87
41
361
244
7
180
236
404
50
376
11
260
224
375
147
162
270
54
402
256
362
86
4
29
349
134
344
191
342
161
237
27
389
275
157
333
80
32
314
385
320
372
99
10
60
382
312
207
183
123
126
201
186
397
9
200
249
14
211
55
373
24
125
88
118
39
334
40
105
197
251
258
353
293
336
16
339
167
96
229
58
356
18
261
277
128
341
8
386
56
192
169
393
304
345
92
148
72
316
12
360
136
283
109
377
160
30
250
26
307
315
350
28
245
388
47
25
378
271
61
317
51
358
17
281
287
95
78
21
194
177
387
212
306
209
351
104
298
264
15
210
329
254
190
391
268
338
49
221
219
266
274
363
65
327
165
227
290
6
89
381
127
98
231
45
253
155
138
36
369
173
5
152
346
279
3
399
325
218
62
321
159
335
331
119
66
240
292
179
171
257
188
308
208
343
22
359
185
130
265
154
100
193
366
347
247
309
189
101
175
73
46
235
149
164
395
297
313
289
129
374
368
318
106
228
371
19
337
199
384
153
305
239
124
296
146
354
142
121
330
59
135
365
181
166
242
285
43
63
145
174
223
326
323
379
246
213
302
108
243
390
37
198
182
328
383
234
230
83
355
64
319
238
140
122
158
380
91
291
13
144
303
311
76
203
150
220
248
93
357
204
400
82
131
42
217
120
370
115
151
107
114
263
398
79
288
70
269
332
71
206
77
255
178
67
262
57
232
31
97
202
367
301
280
226
74
273
163
324
141
187
90
81
348
222
102
216
294
117
205
252
284
111
168
196
75
143
295
286
214
215
137
310
322
195
94
85
276
340
133
139
259
278

> <PUBCHEM_MMFF94_PARTIAL_CHARGES>
3
1 -0.56
11 0.36
9 0.2

> <PUBCHEM_EFFECTIVE_ROTOR_COUNT>
7

> <PUBCHEM_PHARMACOPHORE_FEATURES>
2
1 1 acceptor
1 10 hydrophobe

> <PUBCHEM_HEAVY_ATOM_COUNT>
11

> <PUBCHEM_ATOM_DEF_STEREO_COUNT>
0

> <PUBCHEM_ATOM_UDEF_STEREO_COUNT>
0

> <PUBCHEM_BOND_DEF_STEREO_COUNT>
0

> <PUBCHEM_BOND_UDEF_STEREO_COUNT>
0

> <PUBCHEM_ISOTOPIC_ATOM_COUNT>
0

> <PUBCHEM_COMPONENT_COUNT>
1

> <PUBCHEM_CACTVS_TAUTO_COUNT>
1

> <PUBCHEM_CONFORMER_ID>
0001242700000001

> <PUBCHEM_MMFF94_ENERGY>
-2.5354

> <PUBCHEM_FEATURE_SELFOVERLAP>
10.148

> <PUBCHEM_SHAPE_FINGERPRINT>
10912923 1 17917437552959464665
11858739 19 18411416181104514919
13533116 47 18341894082603085770
13690532 89 18410856555350110017
14123238 8 17775289378242704181
14251718 22 9151166550562051257
14455015 7 18114471101666330043
15242439 84 17095242540438641857
17834072 33 18341893013129712135
20605781 2 9583513218253244670
20645477 70 18334576815830523862
20719005 15 18343585152929669509
20767249 13 17632859737424023997
22485316 2 18341049709017187364
23402539 116 18060416915939221533
4047638 21 10879992463194341532
42 15 18342460330769441868
42788 4 18411701002277473837
522135 26 18334577958260046204
5374978 207 16845572028414502440
57483677 66 18411417341088692927

> <PUBCHEM_SHAPE_MULTIPOLES>
221.39
13.68
1.18
0.69
8.09
0.3
-0.01
4.65
-0.11
-1.53
0.09
0.05
-0.02
-0.43

> <PUBCHEM_SHAPE_SELFOVERLAP>
394.1

> <PUBCHEM_SHAPE_VOLUME>
142

> <PUBCHEM_COORDINATE_TYPE>
2
5
10

$$$$
