17092
  -OEChem-06182211383D

 36 35  0     0  0  0  0  0  0999 V2000
    5.9162   -1.8128    0.3281 N   0  0  0  0  0  0  0  0  0  0  0  0
   -1.1093    0.5351    0.3050 C   0  0  0  0  0  0  0  0  0  0  0  0
    0.2369   -0.0171   -0.1747 C   0  0  0  0  0  0  0  0  0  0  0  0
   -2.3081   -0.2798   -0.1855 C   0  0  0  0  0  0  0  0  0  0  0  0
    1.4299    0.8402    0.2549 C   0  0  0  0  0  0  0  0  0  0  0  0
   -3.6280    0.3538    0.2600 C   0  0  0  0  0  0  0  0  0  0  0  0
    2.7708    0.3214   -0.2754 C   0  0  0  0  0  0  0  0  0  0  0  0
   -4.8270   -0.4763   -0.2013 C   0  0  0  0  0  0  0  0  0  0  0  0
    4.0095    1.1274    0.1386 C   0  0  0  0  0  0  0  0  0  0  0  0
   -6.1462    0.1735    0.2151 C   0  0  0  0  0  0  0  0  0  0  0  0
    5.3359    0.6332   -0.4415 C   0  0  0  0  0  0  0  0  0  0  0  0
   -7.3398   -0.6655   -0.2128 C   0  0  0  0  0  0  0  0  0  0  0  0
    5.6592   -0.7331   -0.0105 C   0  0  0  0  0  0  0  0  0  0  0  0
   -1.1147    0.5682    1.4015 H   0  0  0  0  0  0  0  0  0  0  0  0
   -1.2125    1.5703   -0.0436 H   0  0  0  0  0  0  0  0  0  0  0  0
    0.3659   -1.0372    0.2073 H   0  0  0  0  0  0  0  0  0  0  0  0
    0.2242   -0.0880   -1.2694 H   0  0  0  0  0  0  0  0  0  0  0  0
   -2.2844   -0.3460   -1.2799 H   0  0  0  0  0  0  0  0  0  0  0  0
   -2.2365   -1.3030    0.2025 H   0  0  0  0  0  0  0  0  0  0  0  0
    1.2832    1.8687   -0.0968 H   0  0  0  0  0  0  0  0  0  0  0  0
    1.4683    0.8822    1.3502 H   0  0  0  0  0  0  0  0  0  0  0  0
   -3.6432    0.4433    1.3530 H   0  0  0  0  0  0  0  0  0  0  0  0
   -3.7036    1.3687   -0.1489 H   0  0  0  0  0  0  0  0  0  0  0  0
    2.8901   -0.7169    0.0573 H   0  0  0  0  0  0  0  0  0  0  0  0
    2.7253    0.2916   -1.3716 H   0  0  0  0  0  0  0  0  0  0  0  0
   -4.8014   -0.5864   -1.2923 H   0  0  0  0  0  0  0  0  0  0  0  0
   -4.7610   -1.4840    0.2267 H   0  0  0  0  0  0  0  0  0  0  0  0
    4.0727    1.1336    1.2345 H   0  0  0  0  0  0  0  0  0  0  0  0
    3.8665    2.1704   -0.1705 H   0  0  0  0  0  0  0  0  0  0  0  0
   -6.1707    0.3026    1.3033 H   0  0  0  0  0  0  0  0  0  0  0  0
   -6.2276    1.1710   -0.2321 H   0  0  0  0  0  0  0  0  0  0  0  0
    6.1374    1.3119   -0.1282 H   0  0  0  0  0  0  0  0  0  0  0  0
    5.2945    0.6734   -1.5360 H   0  0  0  0  0  0  0  0  0  0  0  0
   -8.2724   -0.1819    0.0941 H   0  0  0  0  0  0  0  0  0  0  0  0
   -7.3628   -0.7889   -1.3003 H   0  0  0  0  0  0  0  0  0  0  0  0
   -7.3056   -1.6591    0.2455 H   0  0  0  0  0  0  0  0  0  0  0  0
  1 13  3  0  0  0  0
  2  3  1  0  0  0  0
  2  4  1  0  0  0  0
  2 14  1  0  0  0  0
  2 15  1  0  0  0  0
  3  5  1  0  0  0  0
  3 16  1  0  0  0  0
  3 17  1  0  0  0  0
  4  6  1  0  0  0  0
  4 18  1  0  0  0  0
  4 19  1  0  0  0  0
  5  7  1  0  0  0  0
  5 20  1  0  0  0  0
  5 21  1  0  0  0  0
  6  8  1  0  0  0  0
  6 22  1  0  0  0  0
  6 23  1  0  0  0  0
  7  9  1  0  0  0  0
  7 24  1  0  0  0  0
  7 25  1  0  0  0  0
  8 10  1  0  0  0  0
  8 26  1  0  0  0  0
  8 27  1  0  0  0  0
  9 11  1  0  0  0  0
  9 28  1  0  0  0  0
  9 29  1  0  0  0  0
 10 12  1  0  0  0  0
 10 30  1  0  0  0  0
 10 31  1  0  0  0  0
 11 13  1  0  0  0  0
 11 32  1  0  0  0  0
 11 33  1  0  0  0  0
 12 34  1  0  0  0  0
 12 35  1  0  0  0  0
 12 36  1  0  0  0  0
M  END
> <PUBCHEM_COMPOUND_CID>
17092

> <PUBCHEM_CONFORMER_RMSD>
1

> <PUBCHEM_CONFORMER_DIVERSEORDER>
1
448
47
78
122
518
453
10
267
84
198
56
89
63
12
526
149
371
22
15
87
11
102
391
43
443
228
478
85
420
275
103
112
155
524
72
342
106
317
512
404
497
295
364
14
154
517
4
213
329
203
184
334
427
80
205
249
45
174
208
358
430
298
225
379
25
450
299
144
81
469
82
29
500
383
278
436
91
451
7
117
8
201
196
77
67
471
511
376
325
262
314
432
75
301
514
62
480
470
5
204
310
516
185
239
32
312
165
222
459
439

> <PUBCHEM_MMFF94_PARTIAL_CHARGES>
3
1 -0.56
11 0.2
13 0.36

> <PUBCHEM_EFFECTIVE_ROTOR_COUNT>
9

> <PUBCHEM_PHARMACOPHORE_FEATURES>
2
1 1 acceptor
1 12 hydrophobe

> <PUBCHEM_HEAVY_ATOM_COUNT>
13

> <PUBCHEM_ATOM_DEF_STEREO_COUNT>
0

> <PUBCHEM_ATOM_UDEF_STEREO_COUNT>
0

> <PUBCHEM_BOND_DEF_STEREO_COUNT>
0

> <PUBCHEM_BOND_UDEF_STEREO_COUNT>
0

> <PUBCHEM_ISOTOPIC_ATOM_COUNT>
0

> <PUBCHEM_COMPONENT_COUNT>
1

> <PUBCHEM_CACTVS_TAUTO_COUNT>
1

> <PUBCHEM_CONFORMER_ID>
000042C400000001

> <PUBCHEM_MMFF94_ENERGY>
-2.4472

> <PUBCHEM_FEATURE_SELFOVERLAP>
10.148

> <PUBCHEM_SHAPE_FINGERPRINT>
12091667 2 18187083971484719617
125118 31 12463577283138088139
13533116 47 18412543194046158266
1420 363 17385726898068025233
14251752 14 18340765958103741021
14251764 18 18202284710547590064
14251764 46 17748543749164635105
15048467 5 8718825388137781426
17834072 8 17095244722208051866
17834076 25 18408604777581025453
20281389 69 18273215305051308569
20621476 38 18411699846868357462
20621476 66 8142091970484281445
20621476 8 17821726101360346053
20645477 70 18334576807615103150
20735858 18 16559030480521623990
21130983 4 8862942788332817359
22224240 67 13039187009663324269
23035841 295 18201720665583164963
23218964 4 18412825785302869965
23402539 116 17703787037925099365
23521765 1 18342177782573172629
23536379 177 18411419505519991241
28498 318 18409165476797504055
3014965 18 18260543386175041874
328311 84 17967257498745671387
33532 11 18335137592272362027
42630746 31 17846504703651176990
42788 4 18343585157435743793
57483677 66 18410572907389213294
59755656 215 17313100826253579067
59755656 520 18260824930441318271
6438161 24 17240755148223256250
8209 1 18412265051267814796

> <PUBCHEM_SHAPE_MULTIPOLES>
262.55
20
1.13
0.67
11.22
0.29
-0.01
5.78
-0.46
-1.74
0.1
-0.04
-0.01
-0.5

> <PUBCHEM_SHAPE_SELFOVERLAP>
469.48

> <PUBCHEM_SHAPE_VOLUME>
168

> <PUBCHEM_COORDINATE_TYPE>
2
5
10

$$$$
