137448
  -OEChem-06182211373D

 19 19  0     0  0  0  0  0  0999 V2000
   -0.8185   -1.2417   -0.1136 C   0  0  0  0  0  0  0  0  0  0  0  0
   -2.0548   -0.3921    0.1814 C   0  0  0  0  0  0  0  0  0  0  0  0
    0.2960   -0.2479   -0.0251 C   0  0  0  0  0  0  0  0  0  0  0  0
   -1.6521    1.0570   -0.0871 C   0  0  0  0  0  0  0  0  0  0  0  0
   -0.1634    1.0086   -0.0090 C   0  0  0  0  0  0  0  0  0  0  0  0
    1.7164   -0.6816    0.0014 C   0  0  0  0  0  0  0  0  0  0  0  0
    2.6763    0.4978    0.0520 C   0  0  0  0  0  0  0  0  0  0  0  0
   -0.8641   -1.6769   -1.1175 H   0  0  0  0  0  0  0  0  0  0  0  0
   -0.7158   -2.0470    0.6201 H   0  0  0  0  0  0  0  0  0  0  0  0
   -2.3388   -0.5073    1.2356 H   0  0  0  0  0  0  0  0  0  0  0  0
   -2.9176   -0.6980   -0.4191 H   0  0  0  0  0  0  0  0  0  0  0  0
   -2.0781    1.7297    0.6629 H   0  0  0  0  0  0  0  0  0  0  0  0
   -1.9701    1.3861   -1.0816 H   0  0  0  0  0  0  0  0  0  0  0  0
    0.4344    1.9075    0.0251 H   0  0  0  0  0  0  0  0  0  0  0  0
    1.8864   -1.3205    0.8755 H   0  0  0  0  0  0  0  0  0  0  0  0
    1.9317   -1.2808   -0.8906 H   0  0  0  0  0  0  0  0  0  0  0  0
    3.7081    0.1296    0.0702 H   0  0  0  0  0  0  0  0  0  0  0  0
    2.5331    1.1027    0.9540 H   0  0  0  0  0  0  0  0  0  0  0  0
    2.5786    1.1422   -0.8284 H   0  0  0  0  0  0  0  0  0  0  0  0
  1  2  1  0  0  0  0
  1  3  1  0  0  0  0
  1  8  1  0  0  0  0
  1  9  1  0  0  0  0
  2  4  1  0  0  0  0
  2 10  1  0  0  0  0
  2 11  1  0  0  0  0
  3  5  2  0  0  0  0
  3  6  1  0  0  0  0
  4  5  1  0  0  0  0
  4 12  1  0  0  0  0
  4 13  1  0  0  0  0
  5 14  1  0  0  0  0
  6  7  1  0  0  0  0
  6 15  1  0  0  0  0
  6 16  1  0  0  0  0
  7 17  1  0  0  0  0
  7 18  1  0  0  0  0
  7 19  1  0  0  0  0
M  END
> <PUBCHEM_COMPOUND_CID>
137448

> <PUBCHEM_CONFORMER_RMSD>
0.4

> <PUBCHEM_CONFORMER_DIVERSEORDER>
1
2

> <PUBCHEM_MMFF94_PARTIAL_CHARGES>
6
1 0.14
14 0.15
3 -0.28
4 0.14
5 -0.29
6 0.14

> <PUBCHEM_EFFECTIVE_ROTOR_COUNT>
1.6

> <PUBCHEM_PHARMACOPHORE_FEATURES>
2
1 7 hydrophobe
5 1 2 3 4 5 rings

> <PUBCHEM_HEAVY_ATOM_COUNT>
7

> <PUBCHEM_ATOM_DEF_STEREO_COUNT>
0

> <PUBCHEM_ATOM_UDEF_STEREO_COUNT>
0

> <PUBCHEM_BOND_DEF_STEREO_COUNT>
0

> <PUBCHEM_BOND_UDEF_STEREO_COUNT>
0

> <PUBCHEM_ISOTOPIC_ATOM_COUNT>
0

> <PUBCHEM_COMPONENT_COUNT>
1

> <PUBCHEM_CACTVS_TAUTO_COUNT>
1

> <PUBCHEM_CONFORMER_ID>
000218E800000001

> <PUBCHEM_MMFF94_ENERGY>
2.1826

> <PUBCHEM_FEATURE_SELFOVERLAP>
10.148

> <PUBCHEM_SHAPE_FINGERPRINT>
10857977 72 18337665437912229448
14390081 3 18343579651076680368
16714656 1 18411983571964306407
20096714 4 18265895765660220146
21040471 1 18338797788796659796
23552423 10 18260833652955101718
29004967 10 15213021535553022736
369184 2 16443058413455455496
5460574 1 9295291638009808850

> <PUBCHEM_SHAPE_MULTIPOLES>
144.06
3.17
1.27
0.62
1.5
0
0
0.28
0.12
-0.3
-0.03
-0.01
0
0.04

> <PUBCHEM_SHAPE_SELFOVERLAP>
280.607

> <PUBCHEM_SHAPE_VOLUME>
87.4

> <PUBCHEM_COORDINATE_TYPE>
2
5
10

$$$$
