114733
  -OEChem-06182211393D

 18 19  0     0  0  0  0  0  0999 V2000
   -0.3114   -3.1360    0.0015 Cl  0  0  0  0  0  0  0  0  0  0  0  0
   -1.3555    3.0651    0.0006 Cl  0  0  0  0  0  0  0  0  0  0  0  0
   -3.2230   -2.0242   -0.0004 Cl  0  0  0  0  0  0  0  0  0  0  0  0
   -3.7427    1.0600   -0.0010 Cl  0  0  0  0  0  0  0  0  0  0  0  0
    4.5389   -0.7046    0.0011 Cl  0  0  0  0  0  0  0  0  0  0  0  0
    0.5270   -0.5238   -0.0005 C   0  0  0  0  0  0  0  0  0  0  0  0
    0.2917    0.8718    0.0002 C   0  0  0  0  0  0  0  0  0  0  0  0
   -0.5667   -1.4046   -0.0006 C   0  0  0  0  0  0  0  0  0  0  0  0
   -1.0305    1.3454    0.0009 C   0  0  0  0  0  0  0  0  0  0  0  0
    1.8492   -0.9974   -0.0012 C   0  0  0  0  0  0  0  0  0  0  0  0
    1.3855    1.7526    0.0003 C   0  0  0  0  0  0  0  0  0  0  0  0
   -1.8737   -0.9166    0.0000 C   0  0  0  0  0  0  0  0  0  0  0  0
   -2.1051    0.4557    0.0007 C   0  0  0  0  0  0  0  0  0  0  0  0
    2.9240   -0.1078   -0.0012 C   0  0  0  0  0  0  0  0  0  0  0  0
    2.6925    1.2645   -0.0004 C   0  0  0  0  0  0  0  0  0  0  0  0
    2.0775   -2.0601   -0.0015 H   0  0  0  0  0  0  0  0  0  0  0  0
    1.2686    2.8325    0.0010 H   0  0  0  0  0  0  0  0  0  0  0  0
    3.5208    1.9687    0.0001 H   0  0  0  0  0  0  0  0  0  0  0  0
  1  8  1  0  0  0  0
  2  9  1  0  0  0  0
  3 12  1  0  0  0  0
  4 13  1  0  0  0  0
  5 14  1  0  0  0  0
  6  7  2  0  0  0  0
  6  8  1  0  0  0  0
  6 10  1  0  0  0  0
  7  9  1  0  0  0  0
  7 11  1  0  0  0  0
  8 12  2  0  0  0  0
  9 13  2  0  0  0  0
 10 14  2  0  0  0  0
 10 16  1  0  0  0  0
 11 15  2  0  0  0  0
 11 17  1  0  0  0  0
 12 13  1  0  0  0  0
 14 15  1  0  0  0  0
 15 18  1  0  0  0  0
M  END
> <PUBCHEM_COMPOUND_CID>
114733

> <PUBCHEM_CONFORMER_RMSD>
0.4

> <PUBCHEM_CONFORMER_DIVERSEORDER>
1

> <PUBCHEM_MMFF94_PARTIAL_CHARGES>
16
1 -0.18
10 -0.15
11 -0.15
12 0.18
13 0.18
14 0.18
15 -0.15
16 0.15
17 0.15
18 0.15
2 -0.18
3 -0.18
4 -0.18
5 -0.18
8 0.18
9 0.18

> <PUBCHEM_EFFECTIVE_ROTOR_COUNT>
0

> <PUBCHEM_PHARMACOPHORE_FEATURES>
2
6 6 7 10 11 14 15 rings
6 6 7 8 9 12 13 rings

> <PUBCHEM_HEAVY_ATOM_COUNT>
15

> <PUBCHEM_ATOM_DEF_STEREO_COUNT>
0

> <PUBCHEM_ATOM_UDEF_STEREO_COUNT>
0

> <PUBCHEM_BOND_DEF_STEREO_COUNT>
0

> <PUBCHEM_BOND_UDEF_STEREO_COUNT>
0

> <PUBCHEM_ISOTOPIC_ATOM_COUNT>
0

> <PUBCHEM_COMPONENT_COUNT>
1

> <PUBCHEM_CACTVS_TAUTO_COUNT>
1

> <PUBCHEM_CONFORMER_ID>
0001C02D00000001

> <PUBCHEM_MMFF94_ENERGY>
46.3538

> <PUBCHEM_FEATURE_SELFOVERLAP>
10.175

> <PUBCHEM_SHAPE_FINGERPRINT>
10608611 8 18340483473361355456
10967382 1 18266459810740631143
11132069 177 18341891883294759632
12032990 46 18337676441650414795
13140716 1 18411142454517799265
13380535 76 18339079285496308671
14614273 12 18116711803263572877
14790565 3 18267318542292281041
15042514 8 18409451405360486155
15196674 1 18410575123354753316
15309172 13 18411428280069416931
15442244 35 18338234967993061162
15536298 74 18342457097096995848
16945 1 18266740186400983781
17804303 29 18413392046913362344
193761 8 17762338011646004289
19591789 44 18338238270854956611
200 152 17918266571831180935
20510252 161 18343301487345668944
20588541 1 18339645529726458869
20645476 183 17896621624502516638
20711985 365 18337673121656278934
20871998 184 18273497892033801503
21267235 1 18337962276061278299
21501502 16 18338520853743007228
2334 1 18338799047586080869
23402539 116 18342729728266552438
23463225 33 18337111266813977548
23557571 272 18127986393506388652
23559900 14 18343018887978803504
2748010 2 18338796822766660853
335352 9 18338516343879465373
43471831 8 18119809114708118234
5104073 3 18411135870353969096
528886 8 18411132515631017321
54173680 148 18337674234111129698
69090 78 18342733001052555340
7364860 26 17908422454996277855
81228 2 18050555541545493099
8809292 202 18335423477900430074

> <PUBCHEM_SHAPE_MULTIPOLES>
318.04
5.94
3.14
0.63
3.08
0.27
0
0.47
0
-1.77
0
-0.01
0
0

> <PUBCHEM_SHAPE_SELFOVERLAP>
649.909

> <PUBCHEM_SHAPE_VOLUME>
179.1

> <PUBCHEM_COORDINATE_TYPE>
2
5
10

$$$$
