114760
  -OEChem-06182211393D

 18 19  0     0  0  0  0  0  0999 V2000
   -1.6885   -2.9060    0.0018 Cl  0  0  0  0  0  0  0  0  0  0  0  0
   -0.8787    3.2974    0.0006 Cl  0  0  0  0  0  0  0  0  0  0  0  0
    2.0734    2.8072    0.0005 Cl  0  0  0  0  0  0  0  0  0  0  0  0
   -4.0782   -0.8292   -0.0010 Cl  0  0  0  0  0  0  0  0  0  0  0  0
    3.7033   -2.1955   -0.0002 Cl  0  0  0  0  0  0  0  0  0  0  0  0
    0.2029    0.6807   -0.0002 C   0  0  0  0  0  0  0  0  0  0  0  0
   -0.0292   -0.7154   -0.0002 C   0  0  0  0  0  0  0  0  0  0  0  0
   -0.8931    1.5590   -0.0001 C   0  0  0  0  0  0  0  0  0  0  0  0
   -1.3501   -1.1921   -0.0002 C   0  0  0  0  0  0  0  0  0  0  0  0
    1.5238    1.1574   -0.0001 C   0  0  0  0  0  0  0  0  0  0  0  0
    1.0668   -1.5938   -0.0003 C   0  0  0  0  0  0  0  0  0  0  0  0
   -2.4269   -0.3052   -0.0002 C   0  0  0  0  0  0  0  0  0  0  0  0
   -2.1988    1.0677   -0.0001 C   0  0  0  0  0  0  0  0  0  0  0  0
    2.6007    0.2703   -0.0002 C   0  0  0  0  0  0  0  0  0  0  0  0
    2.3727   -1.1026   -0.0003 C   0  0  0  0  0  0  0  0  0  0  0  0
    0.9345   -2.6728   -0.0004 H   0  0  0  0  0  0  0  0  0  0  0  0
   -3.0489    1.7486   -0.0001 H   0  0  0  0  0  0  0  0  0  0  0  0
    3.6267    0.6352   -0.0002 H   0  0  0  0  0  0  0  0  0  0  0  0
  1  9  1  0  0  0  0
  2  8  1  0  0  0  0
  3 10  1  0  0  0  0
  4 12  1  0  0  0  0
  5 15  1  0  0  0  0
  6  7  2  0  0  0  0
  6  8  1  0  0  0  0
  6 10  1  0  0  0  0
  7  9  1  0  0  0  0
  7 11  1  0  0  0  0
  8 13  2  0  0  0  0
  9 12  2  0  0  0  0
 10 14  2  0  0  0  0
 11 15  2  0  0  0  0
 11 16  1  0  0  0  0
 12 13  1  0  0  0  0
 13 17  1  0  0  0  0
 14 15  1  0  0  0  0
 14 18  1  0  0  0  0
M  END
> <PUBCHEM_COMPOUND_CID>
114760

> <PUBCHEM_CONFORMER_RMSD>
0.4

> <PUBCHEM_CONFORMER_DIVERSEORDER>
1

> <PUBCHEM_MMFF94_PARTIAL_CHARGES>
16
1 -0.18
10 0.18
11 -0.15
12 0.18
13 -0.15
14 -0.15
15 0.18
16 0.15
17 0.15
18 0.15
2 -0.18
3 -0.18
4 -0.18
5 -0.18
8 0.18
9 0.18

> <PUBCHEM_EFFECTIVE_ROTOR_COUNT>
0

> <PUBCHEM_PHARMACOPHORE_FEATURES>
2
6 6 7 10 11 14 15 rings
6 6 7 8 9 12 13 rings

> <PUBCHEM_HEAVY_ATOM_COUNT>
15

> <PUBCHEM_ATOM_DEF_STEREO_COUNT>
0

> <PUBCHEM_ATOM_UDEF_STEREO_COUNT>
0

> <PUBCHEM_BOND_DEF_STEREO_COUNT>
0

> <PUBCHEM_BOND_UDEF_STEREO_COUNT>
0

> <PUBCHEM_ISOTOPIC_ATOM_COUNT>
0

> <PUBCHEM_COMPONENT_COUNT>
1

> <PUBCHEM_CACTVS_TAUTO_COUNT>
1

> <PUBCHEM_CONFORMER_ID>
0001C04800000001

> <PUBCHEM_MMFF94_ENERGY>
51.4554

> <PUBCHEM_FEATURE_SELFOVERLAP>
10.175

> <PUBCHEM_SHAPE_FINGERPRINT>
10411042 1 18410856516785718243
10967382 1 18338516472776054021
11471102 20 18410006663348707511
11578080 2 17169523282827116252
11680986 33 18337393867077634995
12032990 46 18409171008742040707
12423570 1 16885565436366092980
12553582 1 18411420600742244718
13140716 1 18338232798908060978
13897977 150 18122340448231026101
14178342 30 17909538798742967835
14790565 3 17332260693232500520
15042514 8 17832988248054510634
15442244 35 18411983537604672027
16945 1 18410575076189195366
17804303 29 18269838627522167946
193761 8 18338516447238228900
19591789 44 17402903215414330553
20510252 161 18199182893397456248
20559304 39 18409730677324357240
20588541 1 18192148415714021253
20645477 70 18337382842466434863
20739085 24 18192742032140378169
21267235 1 18410583867950918147
21501502 16 18411707551649068960
221490 88 18263649631088318163
2334 1 18050287269129224130
23402539 116 18270668767233013111
23419403 2 16323067614209987808
23463225 33 18410856585536271879
23552423 10 18263927807366114958
23557571 272 18128544769678498374
23559900 14 18412538838727754322
2748010 2 18195247947355640782
335352 9 18266741273164847157
34934 24 18267578190260095207
43471831 8 17977098290985944416
53812653 166 17982451804185019425
54173680 148 17978229357548617906
7364860 26 18341050817503923544
8809292 202 18334299764058581843

> <PUBCHEM_SHAPE_MULTIPOLES>
318.04
5.22
3.66
0.63
0.5
1.5
0
-2.7
0
-0.7
0
0
0
0

> <PUBCHEM_SHAPE_SELFOVERLAP>
650.719

> <PUBCHEM_SHAPE_VOLUME>
179.2

> <PUBCHEM_COORDINATE_TYPE>
2
5
10

$$$$
