114838
  -OEChem-06182211393D

 18 19  0     0  0  0  0  0  0999 V2000
   -3.1115   -1.4964    0.0000 Cl  0  0  0  0  0  0  0  0  0  0  0  0
    3.1113   -1.4968    0.0001 Cl  0  0  0  0  0  0  0  0  0  0  0  0
   -3.1113    1.4968    0.0001 Cl  0  0  0  0  0  0  0  0  0  0  0  0
    3.1115    1.4965   -0.0001 Cl  0  0  0  0  0  0  0  0  0  0  0  0
   -0.7076    0.0001    0.0000 C   0  0  0  0  0  0  0  0  0  0  0  0
    0.7077   -0.0001    0.0000 C   0  0  0  0  0  0  0  0  0  0  0  0
   -1.3945   -1.2249    0.0000 C   0  0  0  0  0  0  0  0  0  0  0  0
    1.3943   -1.2251    0.0000 C   0  0  0  0  0  0  0  0  0  0  0  0
   -1.3943    1.2250    0.0000 C   0  0  0  0  0  0  0  0  0  0  0  0
    1.3946    1.2250    0.0000 C   0  0  0  0  0  0  0  0  0  0  0  0
   -0.6960   -2.4327    0.0000 C   0  0  0  0  0  0  0  0  0  0  0  0
    0.6957   -2.4327   -0.0001 C   0  0  0  0  0  0  0  0  0  0  0  0
   -0.6958    2.4326    0.0000 C   0  0  0  0  0  0  0  0  0  0  0  0
    0.6960    2.4326    0.0000 C   0  0  0  0  0  0  0  0  0  0  0  0
   -1.2104   -3.3914   -0.0001 H   0  0  0  0  0  0  0  0  0  0  0  0
    1.2100   -3.3915   -0.0001 H   0  0  0  0  0  0  0  0  0  0  0  0
   -1.2100    3.3914    0.0000 H   0  0  0  0  0  0  0  0  0  0  0  0
    1.2102    3.3914   -0.0001 H   0  0  0  0  0  0  0  0  0  0  0  0
  1  7  1  0  0  0  0
  2  8  1  0  0  0  0
  3  9  1  0  0  0  0
  4 10  1  0  0  0  0
  5  6  1  0  0  0  0
  5  7  2  0  0  0  0
  5  9  1  0  0  0  0
  6  8  2  0  0  0  0
  6 10  1  0  0  0  0
  7 11  1  0  0  0  0
  8 12  1  0  0  0  0
  9 13  2  0  0  0  0
 10 14  2  0  0  0  0
 11 12  2  0  0  0  0
 11 15  1  0  0  0  0
 12 16  1  0  0  0  0
 13 14  1  0  0  0  0
 13 17  1  0  0  0  0
 14 18  1  0  0  0  0
M  END
> <PUBCHEM_COMPOUND_CID>
114838

> <PUBCHEM_CONFORMER_RMSD>
0.4

> <PUBCHEM_CONFORMER_DIVERSEORDER>
1

> <PUBCHEM_MMFF94_PARTIAL_CHARGES>
16
1 -0.18
10 0.18
11 -0.15
12 -0.15
13 -0.15
14 -0.15
15 0.15
16 0.15
17 0.15
18 0.15
2 -0.18
3 -0.18
4 -0.18
7 0.18
8 0.18
9 0.18

> <PUBCHEM_EFFECTIVE_ROTOR_COUNT>
0

> <PUBCHEM_PHARMACOPHORE_FEATURES>
2
6 5 6 7 8 11 12 rings
6 5 6 9 10 13 14 rings

> <PUBCHEM_HEAVY_ATOM_COUNT>
14

> <PUBCHEM_ATOM_DEF_STEREO_COUNT>
0

> <PUBCHEM_ATOM_UDEF_STEREO_COUNT>
0

> <PUBCHEM_BOND_DEF_STEREO_COUNT>
0

> <PUBCHEM_BOND_UDEF_STEREO_COUNT>
0

> <PUBCHEM_ISOTOPIC_ATOM_COUNT>
0

> <PUBCHEM_COMPONENT_COUNT>
1

> <PUBCHEM_CACTVS_TAUTO_COUNT>
1

> <PUBCHEM_CONFORMER_ID>
0001C09600000001

> <PUBCHEM_MMFF94_ENERGY>
58.7637

> <PUBCHEM_FEATURE_SELFOVERLAP>
10.175

> <PUBCHEM_SHAPE_FINGERPRINT>
10967382 1 18266460004114405733
11680986 33 18410575063193556305
12423570 1 11880432711260262066
13140716 1 18410855417178489280
13380535 76 18410567388081768932
16945 1 18410575088958046214
193761 8 18410575084663078919
19591789 44 18410582781244908582
20510252 161 18127977609792230112
20588541 1 18121220045607983270
21501502 16 18410856563934756867
2334 1 18410856593999527943
23419403 2 16324757576413878041
23463225 33 18335979856807057040
23526114 1 18410856563940038228
23559900 14 18270968917634894710
241688 4 18410573955107844395
2748010 2 18410856559639789671
2897 32 18409732893184662165
66348 1 18266741268484718606

> <PUBCHEM_SHAPE_MULTIPOLES>
295.59
4.31
3.37
0.63
0
0
0
0
0
0
0
0
0
0

> <PUBCHEM_SHAPE_SELFOVERLAP>
613.007

> <PUBCHEM_SHAPE_VOLUME>
165.1

> <PUBCHEM_COORDINATE_TYPE>
2
5
10

$$$$
