154262
  -OEChem-06182211393D

 18 19  0     0  0  0  0  0  0999 V2000
    1.5567   -2.7880    0.0008 Cl  0  0  0  0  0  0  0  0  0  0  0  0
   -3.4662    0.9131   -0.0003 Cl  0  0  0  0  0  0  0  0  0  0  0  0
    3.2711   -0.3351   -0.0007 Cl  0  0  0  0  0  0  0  0  0  0  0  0
    0.4438   -0.1844    0.0000 C   0  0  0  0  0  0  0  0  0  0  0  0
   -0.7162    0.6264    0.0001 C   0  0  0  0  0  0  0  0  0  0  0  0
    0.3049   -1.5819   -0.0002 C   0  0  0  0  0  0  0  0  0  0  0  0
   -1.9810    0.0158    0.0001 C   0  0  0  0  0  0  0  0  0  0  0  0
    1.7086    0.4262    0.0000 C   0  0  0  0  0  0  0  0  0  0  0  0
   -0.5772    2.0239    0.0003 C   0  0  0  0  0  0  0  0  0  0  0  0
   -0.9594   -2.1715   -0.0002 C   0  0  0  0  0  0  0  0  0  0  0  0
   -2.1001   -1.3742   -0.0001 C   0  0  0  0  0  0  0  0  0  0  0  0
    1.8279    1.8163    0.0001 C   0  0  0  0  0  0  0  0  0  0  0  0
    0.6872    2.6135    0.0002 C   0  0  0  0  0  0  0  0  0  0  0  0
   -1.4350    2.6909    0.0004 H   0  0  0  0  0  0  0  0  0  0  0  0
   -1.0873   -3.2519   -0.0002 H   0  0  0  0  0  0  0  0  0  0  0  0
   -3.0763   -1.8534   -0.0001 H   0  0  0  0  0  0  0  0  0  0  0  0
    2.7985    2.3078    0.0000 H   0  0  0  0  0  0  0  0  0  0  0  0
    0.7809    3.6957    0.0003 H   0  0  0  0  0  0  0  0  0  0  0  0
  1  6  1  0  0  0  0
  2  7  1  0  0  0  0
  3  8  1  0  0  0  0
  4  5  1  0  0  0  0
  4  6  2  0  0  0  0
  4  8  1  0  0  0  0
  5  7  2  0  0  0  0
  5  9  1  0  0  0  0
  6 10  1  0  0  0  0
  7 11  1  0  0  0  0
  8 12  2  0  0  0  0
  9 13  2  0  0  0  0
  9 14  1  0  0  0  0
 10 11  2  0  0  0  0
 10 15  1  0  0  0  0
 11 16  1  0  0  0  0
 12 13  1  0  0  0  0
 12 17  1  0  0  0  0
 13 18  1  0  0  0  0
M  END
> <PUBCHEM_COMPOUND_CID>
154262

> <PUBCHEM_CONFORMER_RMSD>
0.4

> <PUBCHEM_CONFORMER_DIVERSEORDER>
1

> <PUBCHEM_MMFF94_PARTIAL_CHARGES>
16
1 -0.18
10 -0.15
11 -0.15
12 -0.15
13 -0.15
14 0.15
15 0.15
16 0.15
17 0.15
18 0.15
2 -0.18
3 -0.18
6 0.18
7 0.18
8 0.18
9 -0.15

> <PUBCHEM_EFFECTIVE_ROTOR_COUNT>
0

> <PUBCHEM_PHARMACOPHORE_FEATURES>
2
6 4 5 6 7 10 11 rings
6 4 5 8 9 12 13 rings

> <PUBCHEM_HEAVY_ATOM_COUNT>
13

> <PUBCHEM_ATOM_DEF_STEREO_COUNT>
0

> <PUBCHEM_ATOM_UDEF_STEREO_COUNT>
0

> <PUBCHEM_BOND_DEF_STEREO_COUNT>
0

> <PUBCHEM_BOND_UDEF_STEREO_COUNT>
0

> <PUBCHEM_ISOTOPIC_ATOM_COUNT>
0

> <PUBCHEM_COMPONENT_COUNT>
1

> <PUBCHEM_CACTVS_TAUTO_COUNT>
1

> <PUBCHEM_CONFORMER_ID>
00025A9600000001

> <PUBCHEM_MMFF94_ENERGY>
47.312

> <PUBCHEM_FEATURE_SELFOVERLAP>
10.175

> <PUBCHEM_SHAPE_FINGERPRINT>
10967382 1 18338797810255665510
12423570 1 13440267337473016379
13140716 1 18338799025794850656
13380535 76 18410007728358412299
16945 1 18410575063193556165
193761 8 17978228588475145796
20511035 2 18127972129450467596
20588541 1 18409168770647003805
20645476 183 17824281499089278182
21501502 16 18194402431461786485
2334 1 18122344846024297088
23463225 33 18407757028119392106
23526114 1 18265615570531263156
23552423 10 17830735717974740852
23559900 14 18342465859532017004
241688 4 17762338020046015699
25 1 18335412444519752477
2748010 2 18193838364769239556
2897 32 17977384167855792468
5084963 1 17914622901702260179
528886 8 18411414003471530849
53812653 166 18413387622543172721
66348 1 18339080380517634410

> <PUBCHEM_SHAPE_MULTIPOLES>
273.14
3.99
3.14
0.63
0.86
0.27
0
-0.02
0
-0.86
0
0
0.01
0

> <PUBCHEM_SHAPE_SELFOVERLAP>
572.377

> <PUBCHEM_SHAPE_VOLUME>
150.6

> <PUBCHEM_COORDINATE_TYPE>
2
5
10

$$$$
