521140
  -OEChem-06182211373D

 20 19  0     0  0  0  0  0  0999 V2000
    1.1825    1.6596    0.3383 Cl  0  0  0  0  0  0  0  0  0  0  0  0
    0.9119   -0.0893    0.0037 C   0  0  0  0  0  0  0  0  0  0  0  0
   -0.5304   -0.4835    0.3978 C   0  0  0  0  0  0  0  0  0  0  0  0
   -1.6500    0.2870   -0.3132 C   0  0  0  0  0  0  0  0  0  0  0  0
    1.2007   -0.3453   -1.4788 C   0  0  0  0  0  0  0  0  0  0  0  0
    1.9058   -0.8843    0.8617 C   0  0  0  0  0  0  0  0  0  0  0  0
   -3.0205   -0.1442    0.1906 C   0  0  0  0  0  0  0  0  0  0  0  0
   -0.6701   -1.5565    0.2085 H   0  0  0  0  0  0  0  0  0  0  0  0
   -0.6532   -0.3494    1.4814 H   0  0  0  0  0  0  0  0  0  0  0  0
   -1.5485    1.3648   -0.1517 H   0  0  0  0  0  0  0  0  0  0  0  0
   -1.6036    0.1115   -1.3931 H   0  0  0  0  0  0  0  0  0  0  0  0
    1.0138   -1.3935   -1.7377 H   0  0  0  0  0  0  0  0  0  0  0  0
    0.5772    0.2753   -2.1310 H   0  0  0  0  0  0  0  0  0  0  0  0
    2.2465   -0.1269   -1.7247 H   0  0  0  0  0  0  0  0  0  0  0  0
    1.7948   -1.9614    0.6920 H   0  0  0  0  0  0  0  0  0  0  0  0
    1.7500   -0.7002    1.9310 H   0  0  0  0  0  0  0  0  0  0  0  0
    2.9428   -0.6189    0.6255 H   0  0  0  0  0  0  0  0  0  0  0  0
   -3.1840   -1.2126    0.0167 H   0  0  0  0  0  0  0  0  0  0  0  0
   -3.8073    0.4091   -0.3318 H   0  0  0  0  0  0  0  0  0  0  0  0
   -3.1235    0.0500    1.2630 H   0  0  0  0  0  0  0  0  0  0  0  0
  1  2  1  0  0  0  0
  2  3  1  0  0  0  0
  2  5  1  0  0  0  0
  2  6  1  0  0  0  0
  3  4  1  0  0  0  0
  3  8  1  0  0  0  0
  3  9  1  0  0  0  0
  4  7  1  0  0  0  0
  4 10  1  0  0  0  0
  4 11  1  0  0  0  0
  5 12  1  0  0  0  0
  5 13  1  0  0  0  0
  5 14  1  0  0  0  0
  6 15  1  0  0  0  0
  6 16  1  0  0  0  0
  6 17  1  0  0  0  0
  7 18  1  0  0  0  0
  7 19  1  0  0  0  0
  7 20  1  0  0  0  0
M  END
> <PUBCHEM_COMPOUND_CID>
521140

> <PUBCHEM_CONFORMER_RMSD>
0.4

> <PUBCHEM_CONFORMER_DIVERSEORDER>
1
5
4
3
2

> <PUBCHEM_MMFF94_PARTIAL_CHARGES>
2
1 -0.29
2 0.29

> <PUBCHEM_EFFECTIVE_ROTOR_COUNT>
2

> <PUBCHEM_PHARMACOPHORE_FEATURES>
2
1 7 hydrophobe
3 2 5 6 hydrophobe

> <PUBCHEM_HEAVY_ATOM_COUNT>
7

> <PUBCHEM_ATOM_DEF_STEREO_COUNT>
0

> <PUBCHEM_ATOM_UDEF_STEREO_COUNT>
0

> <PUBCHEM_BOND_DEF_STEREO_COUNT>
0

> <PUBCHEM_BOND_UDEF_STEREO_COUNT>
0

> <PUBCHEM_ISOTOPIC_ATOM_COUNT>
0

> <PUBCHEM_COMPONENT_COUNT>
1

> <PUBCHEM_CACTVS_TAUTO_COUNT>
1

> <PUBCHEM_CONFORMER_ID>
0007F3B400000001

> <PUBCHEM_MMFF94_ENERGY>
7.9955

> <PUBCHEM_FEATURE_SELFOVERLAP>
10.149

> <PUBCHEM_SHAPE_FINGERPRINT>
12932764 1 18261398862403880759
20096714 4 18269833288497972000
21040471 1 17677057965539683395
23235687 12 18131344233060457565
23552449 11 18412258441392092137
24536 1 17775575251176157707
29004967 10 17704073962677101787
3248919 1 17704354381661511347
5084963 1 17240762852719006883
5943 1 13160817635605858220

> <PUBCHEM_SHAPE_MULTIPOLES>
145.93
3.38
1.22
1.09
3.07
0.58
0.32
-0.25
-0.37
-0.7
-0.17
-0.53
-0.22
0.02

> <PUBCHEM_SHAPE_SELFOVERLAP>
249.054

> <PUBCHEM_SHAPE_VOLUME>
100.7

> <PUBCHEM_COORDINATE_TYPE>
2
5
10

$$$$
