18591
  -OEChem-06182211373D

 29 28  0     0  0  0  0  0  0999 V2000
   -1.5141    0.6324   -0.0705 C   0  0  0  0  0  0  0  0  0  0  0  0
   -0.2652   -0.1596    0.3282 C   0  0  0  0  0  0  0  0  0  0  0  0
   -2.8318   -0.0639    0.3174 C   0  0  0  0  0  0  0  0  0  0  0  0
    1.0101    0.5426   -0.1449 C   0  0  0  0  0  0  0  0  0  0  0  0
    2.2574   -0.2646    0.2186 C   0  0  0  0  0  0  0  0  0  0  0  0
    3.5285    0.4204   -0.2829 C   0  0  0  0  0  0  0  0  0  0  0  0
   -2.8897   -1.4556   -0.3176 C   0  0  0  0  0  0  0  0  0  0  0  0
   -4.0634    0.7435   -0.0955 C   0  0  0  0  0  0  0  0  0  0  0  0
    4.7682   -0.3953    0.0471 C   0  0  0  0  0  0  0  0  0  0  0  0
   -1.4797    1.6206    0.4052 H   0  0  0  0  0  0  0  0  0  0  0  0
   -1.5021    0.8074   -1.1542 H   0  0  0  0  0  0  0  0  0  0  0  0
   -0.2409   -0.2878    1.4168 H   0  0  0  0  0  0  0  0  0  0  0  0
   -0.2800   -1.1581   -0.1196 H   0  0  0  0  0  0  0  0  0  0  0  0
   -2.8586   -0.1824    1.4081 H   0  0  0  0  0  0  0  0  0  0  0  0
    1.0710    1.5395    0.3084 H   0  0  0  0  0  0  0  0  0  0  0  0
    0.9696    0.6833   -1.2320 H   0  0  0  0  0  0  0  0  0  0  0  0
    2.3109   -0.3902    1.3069 H   0  0  0  0  0  0  0  0  0  0  0  0
    2.1858   -1.2678   -0.2192 H   0  0  0  0  0  0  0  0  0  0  0  0
    3.6192    1.4144    0.1703 H   0  0  0  0  0  0  0  0  0  0  0  0
    3.4719    0.5626   -1.3684 H   0  0  0  0  0  0  0  0  0  0  0  0
   -2.1704   -2.1416    0.1394 H   0  0  0  0  0  0  0  0  0  0  0  0
   -3.8790   -1.9043   -0.1717 H   0  0  0  0  0  0  0  0  0  0  0  0
   -2.6987   -1.4146   -1.3953 H   0  0  0  0  0  0  0  0  0  0  0  0
   -4.0431    1.7377    0.3630 H   0  0  0  0  0  0  0  0  0  0  0  0
   -4.1063    0.8726   -1.1822 H   0  0  0  0  0  0  0  0  0  0  0  0
   -4.9842    0.2452    0.2253 H   0  0  0  0  0  0  0  0  0  0  0  0
    4.7235   -1.3840   -0.4208 H   0  0  0  0  0  0  0  0  0  0  0  0
    5.6653    0.1135   -0.3193 H   0  0  0  0  0  0  0  0  0  0  0  0
    4.8721   -0.5309    1.1284 H   0  0  0  0  0  0  0  0  0  0  0  0
  1  2  1  0  0  0  0
  1  3  1  0  0  0  0
  1 10  1  0  0  0  0
  1 11  1  0  0  0  0
  2  4  1  0  0  0  0
  2 12  1  0  0  0  0
  2 13  1  0  0  0  0
  3  7  1  0  0  0  0
  3  8  1  0  0  0  0
  3 14  1  0  0  0  0
  4  5  1  0  0  0  0
  4 15  1  0  0  0  0
  4 16  1  0  0  0  0
  5  6  1  0  0  0  0
  5 17  1  0  0  0  0
  5 18  1  0  0  0  0
  6  9  1  0  0  0  0
  6 19  1  0  0  0  0
  6 20  1  0  0  0  0
  7 21  1  0  0  0  0
  7 22  1  0  0  0  0
  7 23  1  0  0  0  0
  8 24  1  0  0  0  0
  8 25  1  0  0  0  0
  8 26  1  0  0  0  0
  9 27  1  0  0  0  0
  9 28  1  0  0  0  0
  9 29  1  0  0  0  0
M  END
> <PUBCHEM_COMPOUND_CID>
18591

> <PUBCHEM_CONFORMER_RMSD>
0.6

> <PUBCHEM_CONFORMER_DIVERSEORDER>
1
22
8
13
16
25
3
10
19
17
24
23
11
9
18
2
20
12
14
21
7
5
15
4
6

> <PUBCHEM_MMFF94_PARTIAL_CHARGES>
0

> <PUBCHEM_EFFECTIVE_ROTOR_COUNT>
5

> <PUBCHEM_PHARMACOPHORE_FEATURES>
4
1 9 hydrophobe
3 1 2 3 hydrophobe
3 3 7 8 hydrophobe
3 4 5 6 hydrophobe

> <PUBCHEM_HEAVY_ATOM_COUNT>
9

> <PUBCHEM_ATOM_DEF_STEREO_COUNT>
0

> <PUBCHEM_ATOM_UDEF_STEREO_COUNT>
0

> <PUBCHEM_BOND_DEF_STEREO_COUNT>
0

> <PUBCHEM_BOND_UDEF_STEREO_COUNT>
0

> <PUBCHEM_ISOTOPIC_ATOM_COUNT>
0

> <PUBCHEM_COMPONENT_COUNT>
1

> <PUBCHEM_CACTVS_TAUTO_COUNT>
1

> <PUBCHEM_CONFORMER_ID>
0000489F00000001

> <PUBCHEM_MMFF94_ENERGY>
0.5534

> <PUBCHEM_FEATURE_SELFOVERLAP>
20.734

> <PUBCHEM_SHAPE_FINGERPRINT>
11062470 55 18186240623557508056
12932764 1 17749374984229192985
14325111 11 18410293635556405344
17834076 25 17846499210382457273
18186145 218 16008748047866633508
190213 19 17418097624238465640
20279233 1 17346605174666015303
20645477 70 18201158724441085326
20719005 15 18410012139009906171
20828058 44 18272651255496198574
21119208 17 18334012782896302621
22485316 2 18413105061335446330
23402539 116 18261105275376672556
42788 4 18334858312181662272

> <PUBCHEM_SHAPE_MULTIPOLES>
185.22
9.12
1.04
0.67
5.27
0.25
0
0.39
0.37
-0.8
0.09
-0.03
0.01
-0.18

> <PUBCHEM_SHAPE_SELFOVERLAP>
323.369

> <PUBCHEM_SHAPE_VOLUME>
124.1

> <PUBCHEM_COORDINATE_TYPE>
2
5
10

$$$$
