53038
  -OEChem-06182211393D

 22 23  0     0  0  0  0  0  0999 V2000
    0.1340    2.7115   -0.1207 Cl  0  0  0  0  0  0  0  0  0  0  0  0
    0.1354   -2.7122   -0.1212 Cl  0  0  0  0  0  0  0  0  0  0  0  0
   -1.1397   -0.0036    2.6012 Cl  0  0  0  0  0  0  0  0  0  0  0  0
    3.2827   -2.7182   -0.0856 Cl  0  0  0  0  0  0  0  0  0  0  0  0
    3.2805    2.7199   -0.0810 Cl  0  0  0  0  0  0  0  0  0  0  0  0
    4.8534    0.0012   -0.0658 Cl  0  0  0  0  0  0  0  0  0  0  0  0
   -5.6438    0.0005   -0.3318 Cl  0  0  0  0  0  0  0  0  0  0  0  0
    0.3133   -0.0005   -0.1200 C   0  0  0  0  0  0  0  0  0  0  0  0
   -1.1374   -0.0001   -0.1359 C   0  0  0  0  0  0  0  0  0  0  0  0
    1.0172    1.2077   -0.1107 C   0  0  0  0  0  0  0  0  0  0  0  0
    1.0180   -1.2081   -0.1121 C   0  0  0  0  0  0  0  0  0  0  0  0
   -1.8863   -0.0016    1.0408 C   0  0  0  0  0  0  0  0  0  0  0  0
   -1.7820    0.0015   -1.3729 C   0  0  0  0  0  0  0  0  0  0  0  0
    2.4128   -1.2077   -0.0952 C   0  0  0  0  0  0  0  0  0  0  0  0
    2.4119    1.2082   -0.0938 C   0  0  0  0  0  0  0  0  0  0  0  0
    3.1098    0.0004   -0.0862 C   0  0  0  0  0  0  0  0  0  0  0  0
   -3.2798   -0.0011    0.9806 C   0  0  0  0  0  0  0  0  0  0  0  0
   -3.1756    0.0017   -1.4332 C   0  0  0  0  0  0  0  0  0  0  0  0
   -3.9245    0.0005   -0.2564 C   0  0  0  0  0  0  0  0  0  0  0  0
   -1.2156    0.0025   -2.3015 H   0  0  0  0  0  0  0  0  0  0  0  0
   -3.8664   -0.0022    1.8969 H   0  0  0  0  0  0  0  0  0  0  0  0
   -3.6644    0.0029   -2.4041 H   0  0  0  0  0  0  0  0  0  0  0  0
  1 10  1  0  0  0  0
  2 11  1  0  0  0  0
  3 12  1  0  0  0  0
  4 14  1  0  0  0  0
  5 15  1  0  0  0  0
  6 16  1  0  0  0  0
  7 19  1  0  0  0  0
  8  9  1  0  0  0  0
  8 10  2  0  0  0  0
  8 11  1  0  0  0  0
  9 12  2  0  0  0  0
  9 13  1  0  0  0  0
 10 15  1  0  0  0  0
 11 14  2  0  0  0  0
 12 17  1  0  0  0  0
 13 18  2  0  0  0  0
 13 20  1  0  0  0  0
 14 16  1  0  0  0  0
 15 16  2  0  0  0  0
 17 19  2  0  0  0  0
 17 21  1  0  0  0  0
 18 19  1  0  0  0  0
 18 22  1  0  0  0  0
M  END
> <PUBCHEM_COMPOUND_CID>
53038

> <PUBCHEM_CONFORMER_RMSD>
0.6

> <PUBCHEM_CONFORMER_DIVERSEORDER>
1

> <PUBCHEM_MMFF94_PARTIAL_CHARGES>
20
1 -0.18
10 0.18
11 0.18
12 0.18
13 -0.15
14 0.18
15 0.18
16 0.18
17 -0.15
18 -0.15
19 0.18
2 -0.18
20 0.15
21 0.15
22 0.15
3 -0.18
4 -0.18
5 -0.18
6 -0.18
7 -0.18

> <PUBCHEM_EFFECTIVE_ROTOR_COUNT>
1

> <PUBCHEM_PHARMACOPHORE_FEATURES>
2
6 8 10 11 14 15 16 rings
6 9 12 13 17 18 19 rings

> <PUBCHEM_HEAVY_ATOM_COUNT>
19

> <PUBCHEM_ATOM_DEF_STEREO_COUNT>
0

> <PUBCHEM_ATOM_UDEF_STEREO_COUNT>
0

> <PUBCHEM_BOND_DEF_STEREO_COUNT>
0

> <PUBCHEM_BOND_UDEF_STEREO_COUNT>
0

> <PUBCHEM_ISOTOPIC_ATOM_COUNT>
0

> <PUBCHEM_COMPONENT_COUNT>
1

> <PUBCHEM_CACTVS_TAUTO_COUNT>
1

> <PUBCHEM_CONFORMER_ID>
0000CF2E00000001

> <PUBCHEM_MMFF94_ENERGY>
57.0057

> <PUBCHEM_FEATURE_SELFOVERLAP>
10.149

> <PUBCHEM_SHAPE_FINGERPRINT>
10366900 7 18040725748858467200
10411042 1 18122623847664912958
10967382 1 18410573994326909334
11471102 20 18409449193715520620
11582403 64 16885766960616441317
11640471 11 17559701480364336961
11725454 13 17099422926338695805
12011746 2 18335709325644406526
12236239 1 17703791414148321863
12403259 327 16588574448133712128
12592029 89 18335697234726237211
13009979 54 17488189184107057866
13140716 1 18266454498657292600
14115302 16 17703784855981323751
14251717 144 18411699876568819911
14790565 3 18338532910318347484
15219456 202 18040999582940827597
15309172 13 18409455811927866226
16945 1 18410858763675378772
1813 80 17914346684282790318
18186145 218 18342453763796036612
18219364 16 18192159410772432928
19049666 15 17749666277390275073
192875 21 18060423538219714112
19862831 5 17703792552209335757
200 152 18272647931344310399
20279233 1 17749114382682810187
20645477 70 18335699416601194030
21267235 1 18342183258171165583
21639500 275 18339918311457364364
2255824 54 18342177752418997366
23175994 123 18186526483601142500
23184049 59 18410576205918705028
2334 1 17978511168033788222
23402539 116 18201714063732991758
23493267 7 17167859760104464776
23526113 38 17967814907695272354
23557571 272 17022899030121890773
23558518 356 17899140412447759676
23559900 14 16805327673813417778
23728640 28 15310124510145894555
2748010 2 18122350348605202270
3286 77 18261111820669786239
335352 9 18410574011802171518
350125 39 17544764881194460724
4340502 62 18340774831722498003
474 4 18271242849894613816
77492 1 17703792517928536605
8272917 22 18341618083883588423
9981440 41 16551402305119100704

> <PUBCHEM_SHAPE_MULTIPOLES>
404.1
8.43
2.57
1.33
4.43
0
-0.79
0
1.2
-3.28
0.21
1.25
0
0

> <PUBCHEM_SHAPE_SELFOVERLAP>
814.69

> <PUBCHEM_SHAPE_VOLUME>
228.6

> <PUBCHEM_COORDINATE_TYPE>
2
5
10

$$$$
