12716068
  -OEChem-06182211353D

 42 41  0     0  0  0  0  0  0999 V2000
   -0.0213   -1.5352   -0.0071 O   0  0  0  0  0  0  0  0  0  0  0  0
   -3.8123    1.6941    0.1230 O   0  0  0  0  0  0  0  0  0  0  0  0
    3.8380    1.6660   -0.1027 O   0  0  0  0  0  0  0  0  0  0  0  0
   -7.5648   -1.5685   -0.0882 O   0  0  0  0  0  0  0  0  0  0  0  0
    7.6390   -1.5611    0.1153 O   0  0  0  0  0  0  0  0  0  0  0  0
   -1.2910    0.5144    0.0497 C   0  0  0  0  0  0  0  0  0  0  0  0
    1.2808    0.5001   -0.0258 C   0  0  0  0  0  0  0  0  0  0  0  0
   -2.5437   -0.3541    0.0389 C   0  0  0  0  0  0  0  0  0  0  0  0
    2.5347   -0.3682   -0.0583 C   0  0  0  0  0  0  0  0  0  0  0  0
   -0.0112   -0.3054    0.0056 C   0  0  0  0  0  0  0  0  0  0  0  0
   -5.1162   -0.3404    0.0233 C   0  0  0  0  0  0  0  0  0  0  0  0
    5.1068   -0.3819    0.0106 C   0  0  0  0  0  0  0  0  0  0  0  0
   -3.8243    0.4656    0.0705 C   0  0  0  0  0  0  0  0  0  0  0  0
    3.8274    0.4371   -0.0530 C   0  0  0  0  0  0  0  0  0  0  0  0
   -6.3792    0.5126    0.0476 C   0  0  0  0  0  0  0  0  0  0  0  0
    6.3600    0.4852   -0.0265 C   0  0  0  0  0  0  0  0  0  0  0  0
   -7.6296   -0.3397   -0.0455 C   0  0  0  0  0  0  0  0  0  0  0  0
    7.6367   -0.3345    0.0252 C   0  0  0  0  0  0  0  0  0  0  0  0
   -8.9562    0.3724   -0.0585 C   0  0  0  0  0  0  0  0  0  0  0  0
    8.9264    0.4415   -0.0441 C   0  0  0  0  0  0  0  0  0  0  0  0
   -1.2680    1.1292    0.9567 H   0  0  0  0  0  0  0  0  0  0  0  0
   -1.2938    1.1845   -0.8175 H   0  0  0  0  0  0  0  0  0  0  0  0
    1.2977    1.1424    0.8622 H   0  0  0  0  0  0  0  0  0  0  0  0
    1.2540    1.1460   -0.9109 H   0  0  0  0  0  0  0  0  0  0  0  0
   -2.5466   -1.0199    0.9095 H   0  0  0  0  0  0  0  0  0  0  0  0
   -2.5603   -0.9736   -0.8652 H   0  0  0  0  0  0  0  0  0  0  0  0
    2.5317   -0.9952   -0.9571 H   0  0  0  0  0  0  0  0  0  0  0  0
    2.5474   -1.0292    0.8160 H   0  0  0  0  0  0  0  0  0  0  0  0
   -5.0935   -0.9448   -0.8913 H   0  0  0  0  0  0  0  0  0  0  0  0
   -5.1124   -1.0237    0.8807 H   0  0  0  0  0  0  0  0  0  0  0  0
    5.0858   -0.9717    0.9340 H   0  0  0  0  0  0  0  0  0  0  0  0
    5.1071   -1.0755   -0.8380 H   0  0  0  0  0  0  0  0  0  0  0  0
   -6.3780    1.2115   -0.7960 H   0  0  0  0  0  0  0  0  0  0  0  0
   -6.4255    1.0933    0.9754 H   0  0  0  0  0  0  0  0  0  0  0  0
    6.3655    1.1748    0.8252 H   0  0  0  0  0  0  0  0  0  0  0  0
    6.3762    1.0795   -0.9473 H   0  0  0  0  0  0  0  0  0  0  0  0
   -9.0825    0.9262    0.8749 H   0  0  0  0  0  0  0  0  0  0  0  0
   -8.9959    1.0552   -0.9107 H   0  0  0  0  0  0  0  0  0  0  0  0
   -9.7660   -0.3563   -0.1523 H   0  0  0  0  0  0  0  0  0  0  0  0
    8.9812    1.1367    0.7973 H   0  0  0  0  0  0  0  0  0  0  0  0
    8.9747    0.9878   -0.9892 H   0  0  0  0  0  0  0  0  0  0  0  0
    9.7745   -0.2465    0.0105 H   0  0  0  0  0  0  0  0  0  0  0  0
  1 10  2  0  0  0  0
  2 13  2  0  0  0  0
  3 14  2  0  0  0  0
  4 17  2  0  0  0  0
  5 18  2  0  0  0  0
  6  8  1  0  0  0  0
  6 10  1  0  0  0  0
  6 21  1  0  0  0  0
  6 22  1  0  0  0  0
  7  9  1  0  0  0  0
  7 10  1  0  0  0  0
  7 23  1  0  0  0  0
  7 24  1  0  0  0  0
  8 13  1  0  0  0  0
  8 25  1  0  0  0  0
  8 26  1  0  0  0  0
  9 14  1  0  0  0  0
  9 27  1  0  0  0  0
  9 28  1  0  0  0  0
 11 13  1  0  0  0  0
 11 15  1  0  0  0  0
 11 29  1  0  0  0  0
 11 30  1  0  0  0  0
 12 14  1  0  0  0  0
 12 16  1  0  0  0  0
 12 31  1  0  0  0  0
 12 32  1  0  0  0  0
 15 17  1  0  0  0  0
 15 33  1  0  0  0  0
 15 34  1  0  0  0  0
 16 18  1  0  0  0  0
 16 35  1  0  0  0  0
 16 36  1  0  0  0  0
 17 19  1  0  0  0  0
 18 20  1  0  0  0  0
 19 37  1  0  0  0  0
 19 38  1  0  0  0  0
 19 39  1  0  0  0  0
 20 40  1  0  0  0  0
 20 41  1  0  0  0  0
 20 42  1  0  0  0  0
M  END
> <PUBCHEM_COMPOUND_CID>
12716068

> <PUBCHEM_CONFORMER_RMSD>
1

> <PUBCHEM_CONFORMER_DIVERSEORDER>
1
12
17
258
228
239
21
95
216
255
221
179
119
104
28
172
309
234
328
79
203
13
303
236
9
337
219
202
233
352
143
308
251
113
192
154
321
190
71
173
43
193
187
7
336
209
224
252
314
259
351
238
130
198
160
46
327
68
136
300
122
338
262
83
90
146
134
61
295
59
348
34
125
138
76
27
26
47
319
345
40
97
188
211
302
249
23
51
176
45
282
335
280
135
81
169
54
5
170
182
264
344
326
144
29
310
74
332
102
77
58
25
174
325
331
133
66
101
33
10
244
246
261
285
137
44
322
341
207
39
108
197
257
145
181
315
343
268
32
194
330
96
307
152
248
342
161
75
124
85
323
148
256
103
129
243
217
183
298
82
353
63
218
230
232
142
57
110
69
281
293
109
16
115
276
253
107
167
354
42
297
94
299
200
67
52
128
92
290
247
313
279
306
49
112
301
346
36
312
159
229
283
55
349
91
275
227
80
105
118
201
260
334
277
141
274
289
324
318
64
163
245
291
139
140
242
184
166
78
30
206
162
333
2
87
320
254
93
48
204
111
126
157
250
208
53
205
106
265
286
305
329
212
65
20
84
225
189
147
350
120
35
72
226
311
114
220
339
185
19
214
168
186
347
60
278
294
11
123
296
178
70
223
199
180
196
340
316
231
62
73
175
131
121
210
215
266
156
287
89
165
288
99
304
132
241
235
98
150
37
271
100
50
127
240
267
116
56
4
273
195
155
88
270
41
86
164
263
292
117
272
149
158
222
191
18
14
153
22
8
317
15
38
151
177
213
284
3
237
171
31
269
24
6

> <PUBCHEM_MMFF94_PARTIAL_CHARGES>
20
1 -0.57
10 0.45
11 0.06
12 0.06
13 0.45
14 0.45
15 0.06
16 0.06
17 0.45
18 0.45
19 0.06
2 -0.57
20 0.06
3 -0.57
4 -0.57
5 -0.57
6 0.06
7 0.06
8 0.06
9 0.06

> <PUBCHEM_EFFECTIVE_ROTOR_COUNT>
12

> <PUBCHEM_PHARMACOPHORE_FEATURES>
5
1 1 acceptor
1 2 acceptor
1 3 acceptor
1 4 acceptor
1 5 acceptor

> <PUBCHEM_HEAVY_ATOM_COUNT>
20

> <PUBCHEM_ATOM_DEF_STEREO_COUNT>
0

> <PUBCHEM_ATOM_UDEF_STEREO_COUNT>
0

> <PUBCHEM_BOND_DEF_STEREO_COUNT>
0

> <PUBCHEM_BOND_UDEF_STEREO_COUNT>
0

> <PUBCHEM_ISOTOPIC_ATOM_COUNT>
0

> <PUBCHEM_COMPONENT_COUNT>
1

> <PUBCHEM_CACTVS_TAUTO_COUNT>
126

> <PUBCHEM_CONFORMER_ID>
00C2082400000001

> <PUBCHEM_MMFF94_ENERGY>
17.4215

> <PUBCHEM_FEATURE_SELFOVERLAP>
25.376

> <PUBCHEM_SHAPE_FINGERPRINT>
10066227 49 18341614750989765742
10299344 5 18410856563934789350
11315181 36 12324246049143513845
11638347 137 14979963545646601854
12091667 2 16415760822052854905
13073987 5 15841003164892538067
13533116 47 17023453175455587497
13885169 127 18409730634527905421
14123256 10 18411700984981365237
14251764 18 18409451375537736472
14251764 46 18410575088958059207
16120349 18 18040999588085485268
20281389 69 18335137592620352548
21095086 128 18272367586028719591
21150785 3 17894067407330096734
21267235 1 18411139138428733840
21315763 28 18410856559645538536
22224240 67 14779547902650207984
232437 2 18410856559661193895
23521765 1 18341895190345691845
246663 6 18410857663446391139
249057 3 15769770281879773580
28498 318 18334857199663787462
33532 11 18333729088028648794
335352 9 18409451405940104884
33684 2 18410573980861758603
4325135 7 18342738516333901999
59682541 35 18131068263878548610
59755656 520 18113613512546014683
67123 10 18410856572529966212
8209 1 18410575088958052708

> <PUBCHEM_SHAPE_MULTIPOLES>
382.24
30.68
1.23
0.6
0.16
0.06
0
2.56
0.31
0.01
0
0
-0.01
-0.18

> <PUBCHEM_SHAPE_SELFOVERLAP>
733.153

> <PUBCHEM_SHAPE_VOLUME>
231.7

> <PUBCHEM_COORDINATE_TYPE>
2
5
10

$$$$
