7934
  -OEChem-06182211363D

 17 17  0     0  0  0  0  0  0999 V2000
   -2.4182    1.0928    0.0006 N   0  0  0  0  0  0  0  0  0  0  0  0
    1.2055    0.3190    0.0001 C   0  0  0  0  0  0  0  0  0  0  0  0
    0.0110    1.0392   -0.0003 C   0  0  0  0  0  0  0  0  0  0  0  0
   -1.2100    0.3649   -0.0006 C   0  0  0  0  0  0  0  0  0  0  0  0
    1.1791   -1.0756    0.0003 C   0  0  0  0  0  0  0  0  0  0  0  0
   -1.2365   -1.0297   -0.0002 C   0  0  0  0  0  0  0  0  0  0  0  0
   -0.0419   -1.7499    0.0001 C   0  0  0  0  0  0  0  0  0  0  0  0
    2.5110    1.0394    0.0000 C   0  0  0  0  0  0  0  0  0  0  0  0
    0.0321    2.1268    0.0016 H   0  0  0  0  0  0  0  0  0  0  0  0
    2.1027   -1.6483    0.0024 H   0  0  0  0  0  0  0  0  0  0  0  0
   -2.1815   -1.5669    0.0000 H   0  0  0  0  0  0  0  0  0  0  0  0
   -0.0626   -2.8359    0.0009 H   0  0  0  0  0  0  0  0  0  0  0  0
    2.4392    1.9854   -0.5475 H   0  0  0  0  0  0  0  0  0  0  0  0
    2.8235    1.2508    1.0275 H   0  0  0  0  0  0  0  0  0  0  0  0
    3.2915    0.4459   -0.4882 H   0  0  0  0  0  0  0  0  0  0  0  0
   -2.4000    2.1040   -0.0026 H   0  0  0  0  0  0  0  0  0  0  0  0
   -3.3036    0.6041   -0.0025 H   0  0  0  0  0  0  0  0  0  0  0  0
  1  4  1  0  0  0  0
  1 16  1  0  0  0  0
  1 17  1  0  0  0  0
  2  3  2  0  0  0  0
  2  5  1  0  0  0  0
  2  8  1  0  0  0  0
  3  4  1  0  0  0  0
  3  9  1  0  0  0  0
  4  6  2  0  0  0  0
  5  7  2  0  0  0  0
  5 10  1  0  0  0  0
  6  7  1  0  0  0  0
  6 11  1  0  0  0  0
  7 12  1  0  0  0  0
  8 13  1  0  0  0  0
  8 14  1  0  0  0  0
  8 15  1  0  0  0  0
M  END
> <PUBCHEM_COMPOUND_CID>
7934

> <PUBCHEM_CONFORMER_RMSD>
0.4

> <PUBCHEM_CONFORMER_DIVERSEORDER>
1

> <PUBCHEM_MMFF94_PARTIAL_CHARGES>
14
1 -0.9
10 0.15
11 0.15
12 0.15
16 0.4
17 0.4
2 -0.14
3 -0.15
4 0.1
5 -0.15
6 -0.15
7 -0.15
8 0.14
9 0.15

> <PUBCHEM_EFFECTIVE_ROTOR_COUNT>
0

> <PUBCHEM_PHARMACOPHORE_FEATURES>
3
1 1 cation
1 1 donor
6 2 3 4 5 6 7 rings

> <PUBCHEM_HEAVY_ATOM_COUNT>
8

> <PUBCHEM_ATOM_DEF_STEREO_COUNT>
0

> <PUBCHEM_ATOM_UDEF_STEREO_COUNT>
0

> <PUBCHEM_BOND_DEF_STEREO_COUNT>
0

> <PUBCHEM_BOND_UDEF_STEREO_COUNT>
0

> <PUBCHEM_ISOTOPIC_ATOM_COUNT>
0

> <PUBCHEM_COMPONENT_COUNT>
1

> <PUBCHEM_CACTVS_TAUTO_COUNT>
1

> <PUBCHEM_CONFORMER_ID>
00001EFE00000001

> <PUBCHEM_MMFF94_ENERGY>
28.677

> <PUBCHEM_FEATURE_SELFOVERLAP>
15.223

> <PUBCHEM_SHAPE_FINGERPRINT>
16714656 1 18122349244234267094
18185500 45 17258498846921429171
20096714 4 18410856516716620299
21040471 1 18410575101964325860
23552423 10 18188773967542231870
241688 4 16826717284819429098
2748010 2 18410298003453911902
29004967 10 17974859362899153499
5084963 1 17986116429137298930

> <PUBCHEM_SHAPE_MULTIPOLES>
159.66
2.74
1.7
0.61
0.52
0.46
0
-1.2
0
-0.24
0
0.02
0.01
0

> <PUBCHEM_SHAPE_SELFOVERLAP>
328.149

> <PUBCHEM_SHAPE_VOLUME>
93.2

> <PUBCHEM_COORDINATE_TYPE>
2
5
10

$$$$
