20082175
  -OEChem-06182211363D

 32 31  0     0  0  0  0  0  0999 V2000
    0.0085    1.7760    0.0287 O   0  0  0  0  0  0  0  0  0  0  0  0
   -3.8090   -1.4756    0.0055 O   0  0  0  0  0  0  0  0  0  0  0  0
    3.7437   -1.4428    0.0139 O   0  0  0  0  0  0  0  0  0  0  0  0
   -1.2675   -0.2756    0.0430 C   0  0  0  0  0  0  0  0  0  0  0  0
    1.3052   -0.2573    0.0412 C   0  0  0  0  0  0  0  0  0  0  0  0
   -2.5328    0.5761    0.0205 C   0  0  0  0  0  0  0  0  0  0  0  0
    2.5435    0.6249   -0.0177 C   0  0  0  0  0  0  0  0  0  0  0  0
    0.0146    0.5461    0.0322 C   0  0  0  0  0  0  0  0  0  0  0  0
   -3.8146   -0.2457   -0.0064 C   0  0  0  0  0  0  0  0  0  0  0  0
    3.8054   -0.2138   -0.0219 C   0  0  0  0  0  0  0  0  0  0  0  0
   -5.1045    0.5576   -0.0419 C   0  0  0  0  0  0  0  0  0  0  0  0
    5.1245    0.5394   -0.0396 C   0  0  0  0  0  0  0  0  0  0  0  0
   -6.3427   -0.3205   -0.0376 C   0  0  0  0  0  0  0  0  0  0  0  0
    6.3258   -0.3889   -0.0197 C   0  0  0  0  0  0  0  0  0  0  0  0
   -1.2500   -0.9357   -0.8319 H   0  0  0  0  0  0  0  0  0  0  0  0
   -1.2587   -0.9034    0.9413 H   0  0  0  0  0  0  0  0  0  0  0  0
    1.3148   -0.8647    0.9536 H   0  0  0  0  0  0  0  0  0  0  0  0
    1.2831   -0.9337   -0.8213 H   0  0  0  0  0  0  0  0  0  0  0  0
   -2.5297    1.2210   -0.8658 H   0  0  0  0  0  0  0  0  0  0  0  0
   -2.5626    1.2193    0.9075 H   0  0  0  0  0  0  0  0  0  0  0  0
    2.5344    1.2371   -0.9262 H   0  0  0  0  0  0  0  0  0  0  0  0
    2.5762    1.2926    0.8503 H   0  0  0  0  0  0  0  0  0  0  0  0
   -5.0967    1.1758   -0.9456 H   0  0  0  0  0  0  0  0  0  0  0  0
   -5.1211    1.2155    0.8333 H   0  0  0  0  0  0  0  0  0  0  0  0
    5.1521    1.1572   -0.9432 H   0  0  0  0  0  0  0  0  0  0  0  0
    5.1546    1.1960    0.8361 H   0  0  0  0  0  0  0  0  0  0  0  0
   -6.3575   -0.9838   -0.9088 H   0  0  0  0  0  0  0  0  0  0  0  0
   -7.2470    0.2955   -0.0615 H   0  0  0  0  0  0  0  0  0  0  0  0
   -6.3783   -0.9460    0.8605 H   0  0  0  0  0  0  0  0  0  0  0  0
    6.3255   -1.0134    0.8798 H   0  0  0  0  0  0  0  0  0  0  0  0
    6.3232   -1.0540   -0.8897 H   0  0  0  0  0  0  0  0  0  0  0  0
    7.2546    0.1895   -0.0341 H   0  0  0  0  0  0  0  0  0  0  0  0
  1  8  2  0  0  0  0
  2  9  2  0  0  0  0
  3 10  2  0  0  0  0
  4  6  1  0  0  0  0
  4  8  1  0  0  0  0
  4 15  1  0  0  0  0
  4 16  1  0  0  0  0
  5  7  1  0  0  0  0
  5  8  1  0  0  0  0
  5 17  1  0  0  0  0
  5 18  1  0  0  0  0
  6  9  1  0  0  0  0
  6 19  1  0  0  0  0
  6 20  1  0  0  0  0
  7 10  1  0  0  0  0
  7 21  1  0  0  0  0
  7 22  1  0  0  0  0
  9 11  1  0  0  0  0
 10 12  1  0  0  0  0
 11 13  1  0  0  0  0
 11 23  1  0  0  0  0
 11 24  1  0  0  0  0
 12 14  1  0  0  0  0
 12 25  1  0  0  0  0
 12 26  1  0  0  0  0
 13 27  1  0  0  0  0
 13 28  1  0  0  0  0
 13 29  1  0  0  0  0
 14 30  1  0  0  0  0
 14 31  1  0  0  0  0
 14 32  1  0  0  0  0
M  END
> <PUBCHEM_COMPOUND_CID>
20082175

> <PUBCHEM_CONFORMER_RMSD>
0.8

> <PUBCHEM_CONFORMER_DIVERSEORDER>
1
164
16
170
7
14
12
140
145
80
161
35
50
181
127
42
17
122
62
104
73
184
148
123
78
129
41
150
10
66
144
49
177
2
72
126
77
142
154
27
125
153
167
138
63
121
26
8
20
55
86
146
128
30
102
119
162
19
22
135
115
15
173
131
109
151
107
97
124
45
183
105
103
159
114
132
185
182
155
143
89
178
172
168
79
25
176
21
37
60
53
96
59
87
137
134
29
94
141
165
100
76
171
111
36
67
169
83
54
85
5
180
74
61
130
112
108
34
23
179
70
51
158
52
110
147
44
43
9
56
28
133
92
139
32
152
166
101
47
160
118
106
11
46
75
57
113
157
39
24
149
13
156
175
116
31
58
33
99
117
98
120
84
136
93
65
68
69
38
91
82
163
95
18
71
90
174
6
40
48
81
3
88
64
4

> <PUBCHEM_MMFF94_PARTIAL_CHARGES>
12
1 -0.57
10 0.45
11 0.06
12 0.06
2 -0.57
3 -0.57
4 0.06
5 0.06
6 0.06
7 0.06
8 0.45
9 0.45

> <PUBCHEM_EFFECTIVE_ROTOR_COUNT>
8

> <PUBCHEM_PHARMACOPHORE_FEATURES>
5
1 1 acceptor
1 13 hydrophobe
1 14 hydrophobe
1 2 acceptor
1 3 acceptor

> <PUBCHEM_HEAVY_ATOM_COUNT>
14

> <PUBCHEM_ATOM_DEF_STEREO_COUNT>
0

> <PUBCHEM_ATOM_UDEF_STEREO_COUNT>
0

> <PUBCHEM_BOND_DEF_STEREO_COUNT>
0

> <PUBCHEM_BOND_UDEF_STEREO_COUNT>
0

> <PUBCHEM_ISOTOPIC_ATOM_COUNT>
0

> <PUBCHEM_COMPONENT_COUNT>
1

> <PUBCHEM_CACTVS_TAUTO_COUNT>
15

> <PUBCHEM_CONFORMER_ID>
01326DFF00000001

> <PUBCHEM_MMFF94_ENERGY>
7.3446

> <PUBCHEM_FEATURE_SELFOVERLAP>
25.373

> <PUBCHEM_SHAPE_FINGERPRINT>
10354089 29 11455890261249252998
10968037 39 18409449198068399703
11287383 113 16081377383355357253
11401426 45 18408040719183104945
12091667 2 16443064998278526277
12714333 28 15213019353678020396
12815109 37 18410856563934763366
13288520 33 18411419527516846165
13533116 47 13614250239505725596
14123238 8 18131633382869445372
1420 363 18272936016254649150
14251718 22 18259985980728714784
14251731 8 18335136492733762789
14251764 18 18272937124746575649
14251764 46 18410572885639823361
15242433 33 18409167714090622535
17834072 33 18411138073587924988
17834072 8 18334571344041922613
17834076 25 18410012134709664100
187816 3 16877663456887905128
200 152 18131349709349527177
20645477 70 18337108948207410094
20767249 13 18411136939405146984
20767249 213 9871746896955115211
21267235 1 18410863161009824265
22224240 67 16630519644196309982
22485316 2 18410854364916925483
23035841 295 18408603651793315290
23402539 116 18341608235080441047
23521765 1 18341895190345704845
23557571 272 17676485008460344436
23559900 14 18341044232828754136
26918003 58 17989488532589371131
42788 4 18410293609686485197
4463277 17 18410855464423499368
8209 1 18408040710361113781

> <PUBCHEM_SHAPE_MULTIPOLES>
270.51
15.67
1.16
0.6
0.24
0.01
0
-2.6
0.33
0
-0.01
0
0.01
-0.01

> <PUBCHEM_SHAPE_SELFOVERLAP>
508.655

> <PUBCHEM_SHAPE_VOLUME>
167.2

> <PUBCHEM_COORDINATE_TYPE>
2
5
10

$$$$
