69278
  -OEChem-06182211403D

 15 15  0     0  0  0  0  0  0999 V2000
   -1.8934   -0.6126    0.0000 O   0  0  0  0  0  0  0  0  0  0  0  0
    2.1502    0.3470   -0.0001 N   0  0  0  0  0  0  0  0  0  0  0  0
   -0.5697   -0.2984    0.0001 C   0  0  0  0  0  0  0  0  0  0  0  0
   -0.1683    1.0330    0.0001 C   0  0  0  0  0  0  0  0  0  0  0  0
    0.3872   -1.3074    0.0000 C   0  0  0  0  0  0  0  0  0  0  0  0
    1.1914    1.3002    0.0000 C   0  0  0  0  0  0  0  0  0  0  0  0
    1.7219   -0.9353    0.0000 C   0  0  0  0  0  0  0  0  0  0  0  0
   -2.8192    0.4734   -0.0001 C   0  0  0  0  0  0  0  0  0  0  0  0
   -0.8426    1.8802    0.0001 H   0  0  0  0  0  0  0  0  0  0  0  0
    0.1031   -2.3539   -0.0001 H   0  0  0  0  0  0  0  0  0  0  0  0
    1.5574    2.3218    0.0000 H   0  0  0  0  0  0  0  0  0  0  0  0
    2.5071   -1.6842   -0.0001 H   0  0  0  0  0  0  0  0  0  0  0  0
   -2.7297    1.0778    0.9089 H   0  0  0  0  0  0  0  0  0  0  0  0
   -3.8252    0.0414   -0.0002 H   0  0  0  0  0  0  0  0  0  0  0  0
   -2.7296    1.0778   -0.9092 H   0  0  0  0  0  0  0  0  0  0  0  0
  1  3  1  0  0  0  0
  1  8  1  0  0  0  0
  2  6  2  0  0  0  0
  2  7  1  0  0  0  0
  3  4  2  0  0  0  0
  3  5  1  0  0  0  0
  4  6  1  0  0  0  0
  4  9  1  0  0  0  0
  5  7  2  0  0  0  0
  5 10  1  0  0  0  0
  6 11  1  0  0  0  0
  7 12  1  0  0  0  0
  8 13  1  0  0  0  0
  8 14  1  0  0  0  0
  8 15  1  0  0  0  0
M  END
> <PUBCHEM_COMPOUND_CID>
69278

> <PUBCHEM_CONFORMER_RMSD>
0.4

> <PUBCHEM_CONFORMER_DIVERSEORDER>
1

> <PUBCHEM_MMFF94_PARTIAL_CHARGES>
12
1 -0.36
10 0.15
11 0.15
12 0.15
2 -0.62
3 0.08
4 -0.15
5 -0.15
6 0.16
7 0.16
8 0.28
9 0.15

> <PUBCHEM_EFFECTIVE_ROTOR_COUNT>
1

> <PUBCHEM_PHARMACOPHORE_FEATURES>
3
1 1 acceptor
1 2 acceptor
6 2 3 4 5 6 7 rings

> <PUBCHEM_HEAVY_ATOM_COUNT>
8

> <PUBCHEM_ATOM_DEF_STEREO_COUNT>
0

> <PUBCHEM_ATOM_UDEF_STEREO_COUNT>
0

> <PUBCHEM_BOND_DEF_STEREO_COUNT>
0

> <PUBCHEM_BOND_UDEF_STEREO_COUNT>
0

> <PUBCHEM_ISOTOPIC_ATOM_COUNT>
0

> <PUBCHEM_COMPONENT_COUNT>
1

> <PUBCHEM_CACTVS_TAUTO_COUNT>
1

> <PUBCHEM_CONFORMER_ID>
00010E9E00000001

> <PUBCHEM_MMFF94_ENERGY>
27.6221

> <PUBCHEM_FEATURE_SELFOVERLAP>
15.223

> <PUBCHEM_SHAPE_FINGERPRINT>
18185500 45 18341891887537044175
20096714 4 18339360893448070506
21040471 1 18194401314880955300
23402655 69 18268413669506950021
23552423 10 18261397715062212758
29004967 10 18333736809804275363

> <PUBCHEM_SHAPE_MULTIPOLES>
153.79
3.13
1.4
0.59
1.79
0.06
0
0.17
0
-0.42
0
0
0
0

> <PUBCHEM_SHAPE_SELFOVERLAP>
314.19

> <PUBCHEM_SHAPE_VOLUME>
88.5

> <PUBCHEM_COORDINATE_TYPE>
2
5
10

$$$$
