16029
  -OEChem-06182211343D

 22 21  0     0  0  0  0  0  0999 V2000
   -2.4019    0.6301    0.0858 C   0  0  0  0  0  0  0  0  0  0  0  0
    2.9315    0.3356   -0.4423 C   0  0  0  0  0  0  0  0  0  0  0  0
   -1.8464   -0.7787   -0.1223 C   0  0  0  0  0  0  0  0  0  0  0  0
    2.2770   -0.8733    0.2260 C   0  0  0  0  0  0  0  0  0  0  0  0
   -3.9176    0.6990   -0.0484 C   0  0  0  0  0  0  0  0  0  0  0  0
    2.5277    1.6594    0.1938 C   0  0  0  0  0  0  0  0  0  0  0  0
   -0.3833   -0.8222    0.0035 C   0  0  0  0  0  0  0  0  0  0  0  0
    0.8131   -0.8498    0.1039 C   0  0  0  0  0  0  0  0  0  0  0  0
   -2.1162    0.9970    1.0797 H   0  0  0  0  0  0  0  0  0  0  0  0
   -1.9500    1.3168   -0.6412 H   0  0  0  0  0  0  0  0  0  0  0  0
    2.6777    0.3595   -1.5092 H   0  0  0  0  0  0  0  0  0  0  0  0
    4.0207    0.2292   -0.3747 H   0  0  0  0  0  0  0  0  0  0  0  0
   -2.1359   -1.1437   -1.1148 H   0  0  0  0  0  0  0  0  0  0  0  0
   -2.2943   -1.4609    0.6099 H   0  0  0  0  0  0  0  0  0  0  0  0
    2.5594   -0.9089    1.2847 H   0  0  0  0  0  0  0  0  0  0  0  0
    2.6645   -1.7885   -0.2365 H   0  0  0  0  0  0  0  0  0  0  0  0
   -4.4041    0.0555    0.6915 H   0  0  0  0  0  0  0  0  0  0  0  0
   -4.2359    0.3788   -1.0455 H   0  0  0  0  0  0  0  0  0  0  0  0
   -4.2666    1.7243    0.1086 H   0  0  0  0  0  0  0  0  0  0  0  0
    3.0805    2.4820   -0.2713 H   0  0  0  0  0  0  0  0  0  0  0  0
    2.7531    1.6645    1.2650 H   0  0  0  0  0  0  0  0  0  0  0  0
    1.4604    1.8625    0.0637 H   0  0  0  0  0  0  0  0  0  0  0  0
  1  3  1  0  0  0  0
  1  5  1  0  0  0  0
  1  9  1  0  0  0  0
  1 10  1  0  0  0  0
  2  4  1  0  0  0  0
  2  6  1  0  0  0  0
  2 11  1  0  0  0  0
  2 12  1  0  0  0  0
  3  7  1  0  0  0  0
  3 13  1  0  0  0  0
  3 14  1  0  0  0  0
  4  8  1  0  0  0  0
  4 15  1  0  0  0  0
  4 16  1  0  0  0  0
  5 17  1  0  0  0  0
  5 18  1  0  0  0  0
  5 19  1  0  0  0  0
  6 20  1  0  0  0  0
  6 21  1  0  0  0  0
  6 22  1  0  0  0  0
  7  8  3  0  0  0  0
M  END
> <PUBCHEM_COMPOUND_CID>
16029

> <PUBCHEM_CONFORMER_RMSD>
0.4

> <PUBCHEM_CONFORMER_DIVERSEORDER>
1
6
3
2
4
5

> <PUBCHEM_MMFF94_PARTIAL_CHARGES>
4
3 0.2
4 0.2
7 -0.2
8 -0.2

> <PUBCHEM_EFFECTIVE_ROTOR_COUNT>
2

> <PUBCHEM_PHARMACOPHORE_FEATURES>
2
1 5 hydrophobe
1 6 hydrophobe

> <PUBCHEM_HEAVY_ATOM_COUNT>
8

> <PUBCHEM_ATOM_DEF_STEREO_COUNT>
0

> <PUBCHEM_ATOM_UDEF_STEREO_COUNT>
0

> <PUBCHEM_BOND_DEF_STEREO_COUNT>
0

> <PUBCHEM_BOND_UDEF_STEREO_COUNT>
0

> <PUBCHEM_ISOTOPIC_ATOM_COUNT>
0

> <PUBCHEM_COMPONENT_COUNT>
1

> <PUBCHEM_CACTVS_TAUTO_COUNT>
1

> <PUBCHEM_CONFORMER_ID>
00003E9D00000001

> <PUBCHEM_MMFF94_ENERGY>
-3.9502

> <PUBCHEM_FEATURE_SELFOVERLAP>
10.149

> <PUBCHEM_SHAPE_FINGERPRINT>
10149128 111 18201445748573194113
10857977 72 16225772908584397351
12932764 1 17530675485666468047
14325111 11 18409449193578506823
14390081 3 18410855490198220619
15775835 57 18409452504898110868
170605 34 18335421253123292379
177051 138 10665224852002335961
20653085 51 18342186578128222210
21293036 1 16200428083031941787
22485316 2 8142075447518266449
23380061 451 12757150177640589052
3248919 1 17274830142147439327

> <PUBCHEM_SHAPE_MULTIPOLES>
164.64
6.3
1.43
0.66
3.33
0.36
0.01
2.5
0.25
-0.67
-0.08
-0.09
0.01
-0.04

> <PUBCHEM_SHAPE_SELFOVERLAP>
291.012

> <PUBCHEM_SHAPE_VOLUME>
105.9

> <PUBCHEM_COORDINATE_TYPE>
2
5
10

$$$$
