5364446
  -OEChem-06182211373D

 24 23  0     0  0  0  0  0  0999 V2000
    1.3358   -0.2136   -0.6830 C   0  0  0  0  0  0  0  0  0  0  0  0
   -1.3452   -0.2240    0.6866 C   0  0  0  0  0  0  0  0  0  0  0  0
    2.2984    0.2119    0.4259 C   0  0  0  0  0  0  0  0  0  0  0  0
   -2.3090    0.2095   -0.4182 C   0  0  0  0  0  0  0  0  0  0  0  0
    0.5942   -1.4639   -0.3092 C   0  0  0  0  0  0  0  0  0  0  0  0
   -0.6001   -1.4686    0.3009 C   0  0  0  0  0  0  0  0  0  0  0  0
    3.0721    1.4631    0.0403 C   0  0  0  0  0  0  0  0  0  0  0  0
   -3.0462    1.4857   -0.0433 C   0  0  0  0  0  0  0  0  0  0  0  0
    0.6531    0.6069   -0.9293 H   0  0  0  0  0  0  0  0  0  0  0  0
    1.8973   -0.4146   -1.6041 H   0  0  0  0  0  0  0  0  0  0  0  0
   -0.6633    0.5950    0.9395 H   0  0  0  0  0  0  0  0  0  0  0  0
   -1.9061   -0.4330    1.6062 H   0  0  0  0  0  0  0  0  0  0  0  0
    1.7509    0.4049    1.3559 H   0  0  0  0  0  0  0  0  0  0  0  0
    3.0095   -0.5967    0.6355 H   0  0  0  0  0  0  0  0  0  0  0  0
   -3.0412   -0.5847   -0.6089 H   0  0  0  0  0  0  0  0  0  0  0  0
   -1.7672    0.3765   -1.3567 H   0  0  0  0  0  0  0  0  0  0  0  0
    1.0668   -2.4140   -0.5434 H   0  0  0  0  0  0  0  0  0  0  0  0
   -1.0700   -2.4223    0.5261 H   0  0  0  0  0  0  0  0  0  0  0  0
    3.7577    1.7478    0.8446 H   0  0  0  0  0  0  0  0  0  0  0  0
    2.3937    2.3030   -0.1411 H   0  0  0  0  0  0  0  0  0  0  0  0
    3.6627    1.2956   -0.8660 H   0  0  0  0  0  0  0  0  0  0  0  0
   -3.6290    1.3472    0.8730 H   0  0  0  0  0  0  0  0  0  0  0  0
   -3.7348    1.7747   -0.8435 H   0  0  0  0  0  0  0  0  0  0  0  0
   -2.3451    2.3111    0.1160 H   0  0  0  0  0  0  0  0  0  0  0  0
  1  3  1  0  0  0  0
  1  5  1  0  0  0  0
  1  9  1  0  0  0  0
  1 10  1  0  0  0  0
  2  4  1  0  0  0  0
  2  6  1  0  0  0  0
  2 11  1  0  0  0  0
  2 12  1  0  0  0  0
  3  7  1  0  0  0  0
  3 13  1  0  0  0  0
  3 14  1  0  0  0  0
  4  8  1  0  0  0  0
  4 15  1  0  0  0  0
  4 16  1  0  0  0  0
  5  6  2  0  0  0  0
  5 17  1  0  0  0  0
  6 18  1  0  0  0  0
  7 19  1  0  0  0  0
  7 20  1  0  0  0  0
  7 21  1  0  0  0  0
  8 22  1  0  0  0  0
  8 23  1  0  0  0  0
  8 24  1  0  0  0  0
M  END
> <PUBCHEM_COMPOUND_CID>
5364446

> <PUBCHEM_CONFORMER_RMSD>
0.6

> <PUBCHEM_CONFORMER_DIVERSEORDER>
1
23
25
28
16
29
4
8
19
18
30
5
26
17
14
27
7
15
21
6
22
11
10
24
13
2
12
20
3
9

> <PUBCHEM_MMFF94_PARTIAL_CHARGES>
6
1 0.14
17 0.15
18 0.15
2 0.14
5 -0.29
6 -0.29

> <PUBCHEM_EFFECTIVE_ROTOR_COUNT>
4

> <PUBCHEM_PHARMACOPHORE_FEATURES>
2
1 7 hydrophobe
1 8 hydrophobe

> <PUBCHEM_HEAVY_ATOM_COUNT>
8

> <PUBCHEM_ATOM_DEF_STEREO_COUNT>
0

> <PUBCHEM_ATOM_UDEF_STEREO_COUNT>
0

> <PUBCHEM_BOND_DEF_STEREO_COUNT>
1

> <PUBCHEM_BOND_UDEF_STEREO_COUNT>
0

> <PUBCHEM_ISOTOPIC_ATOM_COUNT>
0

> <PUBCHEM_COMPONENT_COUNT>
1

> <PUBCHEM_CACTVS_TAUTO_COUNT>
1

> <PUBCHEM_CONFORMER_ID>
0051DADE00000001

> <PUBCHEM_MMFF94_ENERGY>
-1.9361

> <PUBCHEM_FEATURE_SELFOVERLAP>
10.149

> <PUBCHEM_SHAPE_FINGERPRINT>
10149128 111 18410578387493410252
10149128 76 18411699885153486160
10857977 72 16879094974341635937
12897270 3 15841549682306392121
14390081 3 18411137996336425405
15775835 57 18410854360622107585
170605 34 18338234869245639155
18342897 96 18343580771851953341
20653085 51 18343309145198406895
21028194 46 18412268354134452186
21040471 1 18334305257305669199
23552423 10 11312062053770790442

> <PUBCHEM_SHAPE_MULTIPOLES>
164.64
4.82
1.72
0.8
0.06
0.01
0
3.5
0
-0.02
0
0
-0.05
0.22

> <PUBCHEM_SHAPE_SELFOVERLAP>
289.466

> <PUBCHEM_SHAPE_VOLUME>
106.9

> <PUBCHEM_COORDINATE_TYPE>
2
5
10

$$$$
