13229
  -OEChem-06182211353D

 28 29  0     0  0  0  0  0  0999 V2000
    0.7244    0.2319    0.3826 C   0  0  0  0  0  0  0  0  0  0  0  0
    1.3875    1.0431   -0.7443 C   0  0  0  0  0  0  0  0  0  0  0  0
    1.4045   -1.1385    0.5486 C   0  0  0  0  0  0  0  0  0  0  0  0
    2.8928    1.1803   -0.5220 C   0  0  0  0  0  0  0  0  0  0  0  0
    2.9097   -0.9921    0.7654 C   0  0  0  0  0  0  0  0  0  0  0  0
    3.5629   -0.1797   -0.3490 C   0  0  0  0  0  0  0  0  0  0  0  0
   -0.7734    0.0984    0.1758 C   0  0  0  0  0  0  0  0  0  0  0  0
   -1.6355    1.0540    0.7092 C   0  0  0  0  0  0  0  0  0  0  0  0
   -1.2809   -0.9794   -0.5464 C   0  0  0  0  0  0  0  0  0  0  0  0
   -3.0120    0.9311    0.5195 C   0  0  0  0  0  0  0  0  0  0  0  0
   -2.6573   -1.1022   -0.7362 C   0  0  0  0  0  0  0  0  0  0  0  0
   -3.5228   -0.1469   -0.2032 C   0  0  0  0  0  0  0  0  0  0  0  0
    0.8793    0.7757    1.3262 H   0  0  0  0  0  0  0  0  0  0  0  0
    0.9393    2.0424   -0.8061 H   0  0  0  0  0  0  0  0  0  0  0  0
    1.2062    0.5594   -1.7131 H   0  0  0  0  0  0  0  0  0  0  0  0
    1.2788   -1.7653   -0.3409 H   0  0  0  0  0  0  0  0  0  0  0  0
    0.9661   -1.6843    1.3932 H   0  0  0  0  0  0  0  0  0  0  0  0
    3.0757    1.7938    0.3688 H   0  0  0  0  0  0  0  0  0  0  0  0
    3.3433    1.7073   -1.3706 H   0  0  0  0  0  0  0  0  0  0  0  0
    3.3731   -1.9839    0.8181 H   0  0  0  0  0  0  0  0  0  0  0  0
    3.0933   -0.5029    1.7300 H   0  0  0  0  0  0  0  0  0  0  0  0
    3.5027   -0.7383   -1.2912 H   0  0  0  0  0  0  0  0  0  0  0  0
    4.6271   -0.0403   -0.1279 H   0  0  0  0  0  0  0  0  0  0  0  0
   -1.2497    1.8996    1.2721 H   0  0  0  0  0  0  0  0  0  0  0  0
   -0.6486   -1.7308   -1.0050 H   0  0  0  0  0  0  0  0  0  0  0  0
   -3.6859    1.6754    0.9335 H   0  0  0  0  0  0  0  0  0  0  0  0
   -3.0554   -1.9377   -1.3048 H   0  0  0  0  0  0  0  0  0  0  0  0
   -4.5944   -0.2416   -0.3524 H   0  0  0  0  0  0  0  0  0  0  0  0
  1  2  1  0  0  0  0
  1  3  1  0  0  0  0
  1  7  1  0  0  0  0
  1 13  1  0  0  0  0
  2  4  1  0  0  0  0
  2 14  1  0  0  0  0
  2 15  1  0  0  0  0
  3  5  1  0  0  0  0
  3 16  1  0  0  0  0
  3 17  1  0  0  0  0
  4  6  1  0  0  0  0
  4 18  1  0  0  0  0
  4 19  1  0  0  0  0
  5  6  1  0  0  0  0
  5 20  1  0  0  0  0
  5 21  1  0  0  0  0
  6 22  1  0  0  0  0
  6 23  1  0  0  0  0
  7  8  2  0  0  0  0
  7  9  1  0  0  0  0
  8 10  1  0  0  0  0
  8 24  1  0  0  0  0
  9 11  2  0  0  0  0
  9 25  1  0  0  0  0
 10 12  2  0  0  0  0
 10 26  1  0  0  0  0
 11 12  1  0  0  0  0
 11 27  1  0  0  0  0
 12 28  1  0  0  0  0
M  END
> <PUBCHEM_COMPOUND_CID>
13229

> <PUBCHEM_CONFORMER_RMSD>
0.6

> <PUBCHEM_CONFORMER_DIVERSEORDER>
1
2
3

> <PUBCHEM_MMFF94_PARTIAL_CHARGES>
12
1 0.14
10 -0.15
11 -0.15
12 -0.15
24 0.15
25 0.15
26 0.15
27 0.15
28 0.15
7 -0.14
8 -0.15
9 -0.15

> <PUBCHEM_EFFECTIVE_ROTOR_COUNT>
2.2

> <PUBCHEM_PHARMACOPHORE_FEATURES>
2
6 1 2 3 4 5 6 rings
6 7 8 9 10 11 12 rings

> <PUBCHEM_HEAVY_ATOM_COUNT>
12

> <PUBCHEM_ATOM_DEF_STEREO_COUNT>
0

> <PUBCHEM_ATOM_UDEF_STEREO_COUNT>
0

> <PUBCHEM_BOND_DEF_STEREO_COUNT>
0

> <PUBCHEM_BOND_UDEF_STEREO_COUNT>
0

> <PUBCHEM_ISOTOPIC_ATOM_COUNT>
0

> <PUBCHEM_COMPONENT_COUNT>
1

> <PUBCHEM_CACTVS_TAUTO_COUNT>
1

> <PUBCHEM_CONFORMER_ID>
000033AD00000001

> <PUBCHEM_MMFF94_ENERGY>
23.1081

> <PUBCHEM_FEATURE_SELFOVERLAP>
10.149

> <PUBCHEM_SHAPE_FINGERPRINT>
10219947 1 17603587430588389476
11031198 65 17386014978757171718
12932764 1 18410855460149572680
13296908 3 15913326900889780182
13581323 91 17918270948133875455
14144814 61 18410573976566797840
14325111 11 18410857672041730417
14993402 34 18410011026618683950
15279307 12 18411418410113861747
15669948 3 18059852913059254527
15775835 57 18410017640863285236
16945 1 18411417271920556963
17844478 74 16588027883374490645
18186145 218 18113336409940313710
190213 19 18411135839898800458
19422 9 18411139134144238091
20279233 1 15697997426993506580
20645464 45 15430035482864596849
20645476 183 18410012173707644823
20645477 70 17749941176856938979
21119208 17 18411138026058227324
2255824 54 18186523211495250810
23402539 116 17561075870157733557
23402655 69 18261391122224233581
23463225 33 18339922615056909798
23552423 10 18124028190047821389
23559900 14 17561366145891269974
2748010 2 13799167719503290845
3248919 1 18187079580925674714
474 4 18043534034784949548
528886 8 18186519925507503520
57096353 35 18339079418376375909
57812782 119 14908177538552641374
63268167 104 18187080663294473228
7364860 26 18059288902418027920
77492 1 18410855460128161808
8030462 33 18411136969490997641

> <PUBCHEM_SHAPE_MULTIPOLES>
246.95
6.23
1.37
0.92
0.26
0
0
-0.07
-0.36
0.12
-0.02
0.05
-0.01
-0.94

> <PUBCHEM_SHAPE_SELFOVERLAP>
512.089

> <PUBCHEM_SHAPE_VOLUME>
135.3

> <PUBCHEM_COORDINATE_TYPE>
2
5
10

$$$$
