31265
  -OEChem-06182211373D

 26 25  0     0  0  0  0  0  0999 V2000
    2.2910    0.4703   -0.0222 O   0  0  0  0  0  0  0  0  0  0  0  0
    1.2392   -1.5824   -0.0055 O   0  0  0  0  0  0  0  0  0  0  0  0
   -2.5969    0.5076   -0.0536 C   0  0  0  0  0  0  0  0  0  0  0  0
   -1.3325   -0.3558   -0.0063 C   0  0  0  0  0  0  0  0  0  0  0  0
   -3.8575   -0.3508    0.0526 C   0  0  0  0  0  0  0  0  0  0  0  0
   -0.0529    0.4775   -0.0768 C   0  0  0  0  0  0  0  0  0  0  0  0
   -5.1152    0.5034    0.0515 C   0  0  0  0  0  0  0  0  0  0  0  0
    1.2063   -0.3600   -0.0405 C   0  0  0  0  0  0  0  0  0  0  0  0
    3.5642   -0.1800    0.0441 C   0  0  0  0  0  0  0  0  0  0  0  0
    4.6543    0.8702    0.0566 C   0  0  0  0  0  0  0  0  0  0  0  0
   -2.6166    1.0805   -0.9885 H   0  0  0  0  0  0  0  0  0  0  0  0
   -2.5746    1.2318    0.7698 H   0  0  0  0  0  0  0  0  0  0  0  0
   -1.3271   -0.9497    0.9164 H   0  0  0  0  0  0  0  0  0  0  0  0
   -1.3481   -1.0724   -0.8372 H   0  0  0  0  0  0  0  0  0  0  0  0
   -3.8990   -1.0562   -0.7855 H   0  0  0  0  0  0  0  0  0  0  0  0
   -3.8287   -0.9434    0.9745 H   0  0  0  0  0  0  0  0  0  0  0  0
   -0.0442    1.0583   -1.0061 H   0  0  0  0  0  0  0  0  0  0  0  0
   -0.0248    1.1693    0.7728 H   0  0  0  0  0  0  0  0  0  0  0  0
   -5.1198    1.1963    0.8990 H   0  0  0  0  0  0  0  0  0  0  0  0
   -5.1915    1.0878   -0.8710 H   0  0  0  0  0  0  0  0  0  0  0  0
   -6.0042   -0.1307    0.1264 H   0  0  0  0  0  0  0  0  0  0  0  0
    3.6196   -0.7819    0.9581 H   0  0  0  0  0  0  0  0  0  0  0  0
    3.6875   -0.8312   -0.8284 H   0  0  0  0  0  0  0  0  0  0  0  0
    5.6434    0.4067    0.1071 H   0  0  0  0  0  0  0  0  0  0  0  0
    4.6006    1.4922   -0.8430 H   0  0  0  0  0  0  0  0  0  0  0  0
    4.5337    1.5406    0.9141 H   0  0  0  0  0  0  0  0  0  0  0  0
  1  8  1  0  0  0  0
  1  9  1  0  0  0  0
  2  8  2  0  0  0  0
  3  4  1  0  0  0  0
  3  5  1  0  0  0  0
  3 11  1  0  0  0  0
  3 12  1  0  0  0  0
  4  6  1  0  0  0  0
  4 13  1  0  0  0  0
  4 14  1  0  0  0  0
  5  7  1  0  0  0  0
  5 15  1  0  0  0  0
  5 16  1  0  0  0  0
  6  8  1  0  0  0  0
  6 17  1  0  0  0  0
  6 18  1  0  0  0  0
  7 19  1  0  0  0  0
  7 20  1  0  0  0  0
  7 21  1  0  0  0  0
  9 10  1  0  0  0  0
  9 22  1  0  0  0  0
  9 23  1  0  0  0  0
 10 24  1  0  0  0  0
 10 25  1  0  0  0  0
 10 26  1  0  0  0  0
M  END
> <PUBCHEM_COMPOUND_CID>
31265

> <PUBCHEM_CONFORMER_RMSD>
0.6

> <PUBCHEM_CONFORMER_DIVERSEORDER>
1
51
227
224
102
70
225
63
65
235
95
176
200
193
159
134
233
155
228
196
126
11
40
204
205
136
189
5
236
36
7
106
117
207
209
32
153
87
38
18
42
44
174
64
213
80
220
185
229
45
180
137
184
21
9
128
83
75
110
182
48
165
52
221
12
171
4
141
178
71
214
24
118
25
190
119
187
3
169
199
39
218
168
77
216
62
6
219
177
127
16
37
222
61
79
149
144
172
164
50
88
68
108
175
56
167
121
183
59
84
223
67
192
20
101
170
120
2
202
140
230
122
142
158
146
114
19
100
145
26
211
173
154
23
47
217
46
125
13
215
54
55
73
41
123
147
150
210
22
60
111
98
130
151
17
186
35
97
33
124
91
72
74
206
201
43
85
131
156
105
34
195
92
15
157
89
27
8
226
58
139
94
212
234
112
129
103
10
115
90
160
232
69
138
78
163
31
99
14
76
53
179
132
181
109
96
133
161
82
116
86
197
28
66
57
166
198
81
194
29
148
104
191
93
208
113
152
231
143
30
203
107
162
188
135
49

> <PUBCHEM_MMFF94_PARTIAL_CHARGES>
5
1 -0.43
2 -0.57
6 0.06
8 0.66
9 0.28

> <PUBCHEM_EFFECTIVE_ROTOR_COUNT>
6

> <PUBCHEM_PHARMACOPHORE_FEATURES>
3
1 2 acceptor
1 7 hydrophobe
4 3 4 5 6 hydrophobe

> <PUBCHEM_HEAVY_ATOM_COUNT>
10

> <PUBCHEM_ATOM_DEF_STEREO_COUNT>
0

> <PUBCHEM_ATOM_UDEF_STEREO_COUNT>
0

> <PUBCHEM_BOND_DEF_STEREO_COUNT>
0

> <PUBCHEM_BOND_UDEF_STEREO_COUNT>
0

> <PUBCHEM_ISOTOPIC_ATOM_COUNT>
0

> <PUBCHEM_COMPONENT_COUNT>
1

> <PUBCHEM_CACTVS_TAUTO_COUNT>
1

> <PUBCHEM_CONFORMER_ID>
00007A2100000001

> <PUBCHEM_MMFF94_ENERGY>
0.3787

> <PUBCHEM_FEATURE_SELFOVERLAP>
15.223

> <PUBCHEM_SHAPE_FINGERPRINT>
11062470 55 18113056034501481113
12932764 1 15625646216480822911
14123238 8 18040435499258348013
14325111 11 18410573989979252854
17834072 33 17417805188568649261
17834076 25 18341895190815235761
18342897 14 18411136943800600993
20279233 1 17748836198236526435
20645477 70 18268989791782325911
20719005 15 18410575080373392869
21119208 17 15626224628016004880
22485316 2 18186799171528251147
23402539 116 16805315622166625871
23402655 69 18272083864757622453
366044 4 18410292531729101106
42 15 12179843896626844429
42788 4 18411419514041288897
449060 50 18408887334625685797

> <PUBCHEM_SHAPE_MULTIPOLES>
194.06
10.16
1.01
0.6
2.67
0.21
0
-2.55
0.35
-0.39
0
0.04
-0.01
0.02

> <PUBCHEM_SHAPE_SELFOVERLAP>
349.107

> <PUBCHEM_SHAPE_VOLUME>
125.7

> <PUBCHEM_COORDINATE_TYPE>
2
5
10

$$$$
