15431
  -OEChem-06182211373D

 21 21  0     0  0  0  0  0  0999 V2000
   -0.3202   -0.2380    0.2971 C   0  0  0  0  0  0  0  0  0  0  0  0
    0.7654   -1.2263   -0.1177 C   0  0  0  0  0  0  0  0  0  0  0  0
    0.2136    1.0809   -0.2524 C   0  0  0  0  0  0  0  0  0  0  0  0
    2.0675   -0.4647    0.1105 C   0  0  0  0  0  0  0  0  0  0  0  0
    1.7100    1.0207    0.0357 C   0  0  0  0  0  0  0  0  0  0  0  0
   -1.6946   -0.5980   -0.2396 C   0  0  0  0  0  0  0  0  0  0  0  0
   -2.7417    0.4255    0.1665 C   0  0  0  0  0  0  0  0  0  0  0  0
   -0.3545   -0.1855    1.3940 H   0  0  0  0  0  0  0  0  0  0  0  0
    0.6719   -1.4872   -1.1792 H   0  0  0  0  0  0  0  0  0  0  0  0
    0.7271   -2.1549    0.4600 H   0  0  0  0  0  0  0  0  0  0  0  0
   -0.2477    1.9547    0.2181 H   0  0  0  0  0  0  0  0  0  0  0  0
    0.0479    1.1517   -1.3346 H   0  0  0  0  0  0  0  0  0  0  0  0
    2.8238   -0.7394   -0.6318 H   0  0  0  0  0  0  0  0  0  0  0  0
    2.4786   -0.6981    1.0995 H   0  0  0  0  0  0  0  0  0  0  0  0
    1.9337    1.5038    0.9939 H   0  0  0  0  0  0  0  0  0  0  0  0
    2.2864    1.5406   -0.7362 H   0  0  0  0  0  0  0  0  0  0  0  0
   -1.9886   -1.5816    0.1459 H   0  0  0  0  0  0  0  0  0  0  0  0
   -1.6763   -0.6792   -1.3331 H   0  0  0  0  0  0  0  0  0  0  0  0
   -2.7705    0.5523    1.2535 H   0  0  0  0  0  0  0  0  0  0  0  0
   -2.5526    1.4008   -0.2917 H   0  0  0  0  0  0  0  0  0  0  0  0
   -3.7334    0.0955   -0.1599 H   0  0  0  0  0  0  0  0  0  0  0  0
  1  2  1  0  0  0  0
  1  3  1  0  0  0  0
  1  6  1  0  0  0  0
  1  8  1  0  0  0  0
  2  4  1  0  0  0  0
  2  9  1  0  0  0  0
  2 10  1  0  0  0  0
  3  5  1  0  0  0  0
  3 11  1  0  0  0  0
  3 12  1  0  0  0  0
  4  5  1  0  0  0  0
  4 13  1  0  0  0  0
  4 14  1  0  0  0  0
  5 15  1  0  0  0  0
  5 16  1  0  0  0  0
  6  7  1  0  0  0  0
  6 17  1  0  0  0  0
  6 18  1  0  0  0  0
  7 19  1  0  0  0  0
  7 20  1  0  0  0  0
  7 21  1  0  0  0  0
M  END
> <PUBCHEM_COMPOUND_CID>
15431

> <PUBCHEM_CONFORMER_RMSD>
0.4

> <PUBCHEM_CONFORMER_DIVERSEORDER>
1
5
4
2
3

> <PUBCHEM_MMFF94_PARTIAL_CHARGES>
0

> <PUBCHEM_EFFECTIVE_ROTOR_COUNT>
2

> <PUBCHEM_PHARMACOPHORE_FEATURES>
2
1 7 hydrophobe
5 1 2 3 4 5 rings

> <PUBCHEM_HEAVY_ATOM_COUNT>
7

> <PUBCHEM_ATOM_DEF_STEREO_COUNT>
0

> <PUBCHEM_ATOM_UDEF_STEREO_COUNT>
0

> <PUBCHEM_BOND_DEF_STEREO_COUNT>
0

> <PUBCHEM_BOND_UDEF_STEREO_COUNT>
0

> <PUBCHEM_ISOTOPIC_ATOM_COUNT>
0

> <PUBCHEM_COMPONENT_COUNT>
1

> <PUBCHEM_CACTVS_TAUTO_COUNT>
1

> <PUBCHEM_CONFORMER_ID>
00003C4700000001

> <PUBCHEM_MMFF94_ENERGY>
5.8519

> <PUBCHEM_FEATURE_SELFOVERLAP>
10.148

> <PUBCHEM_SHAPE_FINGERPRINT>
14390081 3 18201717400885897729
18185500 45 18342736329747252639
20096714 4 18338799034326632611
21040471 1 18194402414450566380
23552423 10 18334577949095202622
24536 1 18189045563719459411
29004967 10 18260270732781257739
5460574 1 9367348136973501115

> <PUBCHEM_SHAPE_MULTIPOLES>
144.06
3.23
1.26
0.65
1.6
0.03
0
0.26
-0.16
-0.36
0.06
0.02
0
-0.06

> <PUBCHEM_SHAPE_SELFOVERLAP>
273.189

> <PUBCHEM_SHAPE_VOLUME>
87.8

> <PUBCHEM_COORDINATE_TYPE>
2
5
10

$$$$
