14470
  -OEChem-06182211363D

 15 14  0     0  0  0  0  0  0999 V2000
    0.0325   -1.3365   -0.0063 O   0  0  0  0  0  0  0  0  0  0  0  0
   -1.1951    0.6369    0.0018 N   0  0  0  0  0  0  0  0  0  0  0  0
    1.2033    0.7800   -0.0131 C   0  0  0  0  0  0  0  0  0  0  0  0
   -0.0260   -0.1098   -0.0047 C   0  0  0  0  0  0  0  0  0  0  0  0
    2.4974   -0.0126    0.0148 C   0  0  0  0  0  0  0  0  0  0  0  0
   -2.5121    0.0420    0.0076 C   0  0  0  0  0  0  0  0  0  0  0  0
    1.1734    1.4040   -0.9135 H   0  0  0  0  0  0  0  0  0  0  0  0
    1.1603    1.4417    0.8596 H   0  0  0  0  0  0  0  0  0  0  0  0
    2.5744   -0.6705   -0.8572 H   0  0  0  0  0  0  0  0  0  0  0  0
    3.3584    0.6629    0.0104 H   0  0  0  0  0  0  0  0  0  0  0  0
    2.5568   -0.6370    0.9124 H   0  0  0  0  0  0  0  0  0  0  0  0
   -1.1366    1.6508    0.0224 H   0  0  0  0  0  0  0  0  0  0  0  0
   -2.4669   -1.0224   -0.2347 H   0  0  0  0  0  0  0  0  0  0  0  0
   -3.1278    0.5657   -0.7276 H   0  0  0  0  0  0  0  0  0  0  0  0
   -2.9423    0.1764    1.0030 H   0  0  0  0  0  0  0  0  0  0  0  0
  1  4  2  0  0  0  0
  2  4  1  0  0  0  0
  2  6  1  0  0  0  0
  2 12  1  0  0  0  0
  3  4  1  0  0  0  0
  3  5  1  0  0  0  0
  3  7  1  0  0  0  0
  3  8  1  0  0  0  0
  5  9  1  0  0  0  0
  5 10  1  0  0  0  0
  5 11  1  0  0  0  0
  6 13  1  0  0  0  0
  6 14  1  0  0  0  0
  6 15  1  0  0  0  0
M  END
> <PUBCHEM_COMPOUND_CID>
14470

> <PUBCHEM_CONFORMER_RMSD>
0.4

> <PUBCHEM_CONFORMER_DIVERSEORDER>
1
4
3
2

> <PUBCHEM_MMFF94_PARTIAL_CHARGES>
6
1 -0.57
12 0.37
2 -0.73
3 0.06
4 0.57
6 0.3

> <PUBCHEM_EFFECTIVE_ROTOR_COUNT>
2

> <PUBCHEM_PHARMACOPHORE_FEATURES>
3
1 1 acceptor
1 2 donor
1 5 hydrophobe

> <PUBCHEM_HEAVY_ATOM_COUNT>
6

> <PUBCHEM_ATOM_DEF_STEREO_COUNT>
0

> <PUBCHEM_ATOM_UDEF_STEREO_COUNT>
0

> <PUBCHEM_BOND_DEF_STEREO_COUNT>
0

> <PUBCHEM_BOND_UDEF_STEREO_COUNT>
0

> <PUBCHEM_ISOTOPIC_ATOM_COUNT>
0

> <PUBCHEM_COMPONENT_COUNT>
1

> <PUBCHEM_CACTVS_TAUTO_COUNT>
2

> <PUBCHEM_CONFORMER_ID>
0000388600000001

> <PUBCHEM_MMFF94_ENERGY>
0.9756

> <PUBCHEM_FEATURE_SELFOVERLAP>
15.223

> <PUBCHEM_SHAPE_FINGERPRINT>
16714656 1 18335140907707019908
20096714 4 18409729594734194256
21040471 1 18410856589857554436
29004967 10 18259991448243214249
5460574 1 9295291637946609248

> <PUBCHEM_SHAPE_MULTIPOLES>
112.63
3.34
0.99
0.59
0.33
0.2
0
-0.27
0.02
-0.06
0
-0.02
-0.01
0

> <PUBCHEM_SHAPE_SELFOVERLAP>
198.019

> <PUBCHEM_SHAPE_VOLUME>
74.8

> <PUBCHEM_COORDINATE_TYPE>
2
5
10

$$$$
