16607
  -OEChem-06182211383D

 36 36  0     0  0  0  0  0  0999 V2000
    2.3226    0.0611    0.2046 C   0  0  0  0  0  0  0  0  0  0  0  0
    1.1348   -0.0246   -0.7588 C   0  0  0  0  0  0  0  0  0  0  0  0
    3.6817    0.0095   -0.4966 C   0  0  0  0  0  0  0  0  0  0  0  0
   -0.2512   -0.0629   -0.1077 C   0  0  0  0  0  0  0  0  0  0  0  0
    4.8280    0.0080    0.5173 C   0  0  0  0  0  0  0  0  0  0  0  0
   -1.3983   -0.0905   -1.1209 C   0  0  0  0  0  0  0  0  0  0  0  0
    6.1878   -0.0103   -0.1807 C   0  0  0  0  0  0  0  0  0  0  0  0
   -2.7418   -0.0357   -0.4382 C   0  0  0  0  0  0  0  0  0  0  0  0
    7.3297    0.0228    0.8227 C   0  0  0  0  0  0  0  0  0  0  0  0
   -3.3694   -1.2175   -0.0739 C   0  0  0  0  0  0  0  0  0  0  0  0
   -3.3278    1.1955   -0.1862 C   0  0  0  0  0  0  0  0  0  0  0  0
   -4.6124   -1.1667    0.5571 C   0  0  0  0  0  0  0  0  0  0  0  0
   -4.5707    1.2463    0.4449 C   0  0  0  0  0  0  0  0  0  0  0  0
   -5.2129    0.0651    0.8165 C   0  0  0  0  0  0  0  0  0  0  0  0
    2.2461    0.9872    0.7873 H   0  0  0  0  0  0  0  0  0  0  0  0
    2.2544   -0.7685    0.9193 H   0  0  0  0  0  0  0  0  0  0  0  0
    1.2491   -0.9218   -1.3807 H   0  0  0  0  0  0  0  0  0  0  0  0
    1.1807    0.8324   -1.4427 H   0  0  0  0  0  0  0  0  0  0  0  0
    3.7415   -0.8928   -1.1170 H   0  0  0  0  0  0  0  0  0  0  0  0
    3.7780    0.8712   -1.1679 H   0  0  0  0  0  0  0  0  0  0  0  0
   -0.3150   -0.9408    0.5478 H   0  0  0  0  0  0  0  0  0  0  0  0
   -0.3557    0.8154    0.5425 H   0  0  0  0  0  0  0  0  0  0  0  0
    4.7393   -0.8663    1.1736 H   0  0  0  0  0  0  0  0  0  0  0  0
    4.7548    0.8984    1.1536 H   0  0  0  0  0  0  0  0  0  0  0  0
   -1.3068    0.7538   -1.8162 H   0  0  0  0  0  0  0  0  0  0  0  0
   -1.3315   -0.9947   -1.7393 H   0  0  0  0  0  0  0  0  0  0  0  0
    6.2766   -0.9112   -0.7991 H   0  0  0  0  0  0  0  0  0  0  0  0
    6.2747    0.8531   -0.8506 H   0  0  0  0  0  0  0  0  0  0  0  0
    7.2906   -0.8440    1.4900 H   0  0  0  0  0  0  0  0  0  0  0  0
    8.2923    0.0077    0.3021 H   0  0  0  0  0  0  0  0  0  0  0  0
    7.2884    0.9297    1.4342 H   0  0  0  0  0  0  0  0  0  0  0  0
   -2.9088   -2.1815   -0.2700 H   0  0  0  0  0  0  0  0  0  0  0  0
   -2.8348    2.1209   -0.4701 H   0  0  0  0  0  0  0  0  0  0  0  0
   -5.1122   -2.0863    0.8471 H   0  0  0  0  0  0  0  0  0  0  0  0
   -5.0382    2.2054    0.6474 H   0  0  0  0  0  0  0  0  0  0  0  0
   -6.1806    0.1048    1.3081 H   0  0  0  0  0  0  0  0  0  0  0  0
  1  2  1  0  0  0  0
  1  3  1  0  0  0  0
  1 15  1  0  0  0  0
  1 16  1  0  0  0  0
  2  4  1  0  0  0  0
  2 17  1  0  0  0  0
  2 18  1  0  0  0  0
  3  5  1  0  0  0  0
  3 19  1  0  0  0  0
  3 20  1  0  0  0  0
  4  6  1  0  0  0  0
  4 21  1  0  0  0  0
  4 22  1  0  0  0  0
  5  7  1  0  0  0  0
  5 23  1  0  0  0  0
  5 24  1  0  0  0  0
  6  8  1  0  0  0  0
  6 25  1  0  0  0  0
  6 26  1  0  0  0  0
  7  9  1  0  0  0  0
  7 27  1  0  0  0  0
  7 28  1  0  0  0  0
  8 10  2  0  0  0  0
  8 11  1  0  0  0  0
  9 29  1  0  0  0  0
  9 30  1  0  0  0  0
  9 31  1  0  0  0  0
 10 12  1  0  0  0  0
 10 32  1  0  0  0  0
 11 13  2  0  0  0  0
 11 33  1  0  0  0  0
 12 14  2  0  0  0  0
 12 34  1  0  0  0  0
 13 14  1  0  0  0  0
 13 35  1  0  0  0  0
 14 36  1  0  0  0  0
M  END
> <PUBCHEM_COMPOUND_CID>
16607

> <PUBCHEM_CONFORMER_RMSD>
0.8

> <PUBCHEM_CONFORMER_DIVERSEORDER>
1
49
25
18
59
58
52
13
57
54
6
7
34
46
45
3
40
26
32
15
38
8
9
31
41
11
17
4
10
20
36
53
12
22
44
39
16
33
56
42
5
55
47
2
28
60
30
43
21
14
24
27
51
29
50
37
35
19
48
23

> <PUBCHEM_MMFF94_PARTIAL_CHARGES>
12
10 -0.15
11 -0.15
12 -0.15
13 -0.15
14 -0.15
32 0.15
33 0.15
34 0.15
35 0.15
36 0.15
6 0.14
8 -0.14

> <PUBCHEM_EFFECTIVE_ROTOR_COUNT>
7

> <PUBCHEM_PHARMACOPHORE_FEATURES>
2
1 9 hydrophobe
6 8 10 11 12 13 14 rings

> <PUBCHEM_HEAVY_ATOM_COUNT>
14

> <PUBCHEM_ATOM_DEF_STEREO_COUNT>
0

> <PUBCHEM_ATOM_UDEF_STEREO_COUNT>
0

> <PUBCHEM_BOND_DEF_STEREO_COUNT>
0

> <PUBCHEM_BOND_UDEF_STEREO_COUNT>
0

> <PUBCHEM_ISOTOPIC_ATOM_COUNT>
0

> <PUBCHEM_COMPONENT_COUNT>
1

> <PUBCHEM_CACTVS_TAUTO_COUNT>
1

> <PUBCHEM_CONFORMER_ID>
000040DF00000001

> <PUBCHEM_MMFF94_ENERGY>
15.1851

> <PUBCHEM_FEATURE_SELFOVERLAP>
10.148

> <PUBCHEM_SHAPE_FINGERPRINT>
10968037 39 9799690398534728993
11089746 13 12967125017520706722
11315181 36 18113620109884124533
12091667 2 17989484130342760390
12714333 28 13110963124197075510
13288520 33 16732701657975412335
13403585 85 18272650138688995152
13668630 136 14418136214333685168
14123238 8 16443064997998892998
1420 363 14851607670147140176
14251718 22 7925910379102494652
14729087 3 15841548566295364666
15048467 5 15482672377435813050
15242439 84 10665229263149929558
15348495 7 18130219480210739034
15501527 16 17346878957567230204
15716309 27 17168143438393694794
17093844 174 17458619017173625117
17834072 33 17749394793034996380
17834076 25 14477242665213477950
19433438 28 18412258458756928552
200 152 14634866457400972229
20281389 69 16988842774491068400
20645477 56 17418371385137570781
21150785 3 12103837964971194648
220451 1 18040155111304249098
23035841 295 17530683208571216698
23402539 116 16225761908861831822
23466295 7 13914042113773613161
23536379 177 18410011022993597202
23559900 14 10881691242359682831
2767999 5 14620792695991845210
328310 630 14045454618090890386
351380 3 16732980933960509450
42788 4 18411418419299265220
542803 24 18412544323580255012

> <PUBCHEM_SHAPE_MULTIPOLES>
288.11
17.54
1.03
0.94
26.67
0.02
-0.04
0.24
5.55
-1.65
0.08
-0.01
-0.01
0.05

> <PUBCHEM_SHAPE_SELFOVERLAP>
559.781

> <PUBCHEM_SHAPE_VOLUME>
170.9

> <PUBCHEM_COORDINATE_TYPE>
2
5
10

$$$$
