13041
  -OEChem-06182211343D

 13 13  0     0  0  0  0  0  0999 V2000
   -1.4221    2.3356   -0.0004 F   0  0  0  0  0  0  0  0  0  0  0  0
   -1.2988   -2.4063   -0.0004 F   0  0  0  0  0  0  0  0  0  0  0  0
    2.7343    0.0711   -0.0001 F   0  0  0  0  0  0  0  0  0  0  0  0
    1.4293   -2.3316   -0.0004 F   0  0  0  0  0  0  0  0  0  0  0  0
    1.3061    2.4026   -0.0005 F   0  0  0  0  0  0  0  0  0  0  0  0
   -2.7541   -0.0715   -0.0003 O   0  0  0  0  0  0  0  0  0  0  0  0
   -1.3935   -0.0361    0.0004 C   0  0  0  0  0  0  0  0  0  0  0  0
   -0.7278    1.1895    0.0005 C   0  0  0  0  0  0  0  0  0  0  0  0
   -0.6650   -1.2257    0.0003 C   0  0  0  0  0  0  0  0  0  0  0  0
    0.7295   -1.1896    0.0003 C   0  0  0  0  0  0  0  0  0  0  0  0
    0.6666    1.2257    0.0003 C   0  0  0  0  0  0  0  0  0  0  0  0
    1.3953    0.0362    0.0003 C   0  0  0  0  0  0  0  0  0  0  0  0
   -3.0374   -1.0024   -0.0004 H   0  0  0  0  0  0  0  0  0  0  0  0
  1  8  1  0  0  0  0
  2  9  1  0  0  0  0
  3 12  1  0  0  0  0
  4 10  1  0  0  0  0
  5 11  1  0  0  0  0
  6  7  1  0  0  0  0
  6 13  1  0  0  0  0
  7  8  2  0  0  0  0
  7  9  1  0  0  0  0
  8 11  1  0  0  0  0
  9 10  2  0  0  0  0
 10 12  1  0  0  0  0
 11 12  2  0  0  0  0
M  END
> <PUBCHEM_COMPOUND_CID>
13041

> <PUBCHEM_CONFORMER_RMSD>
0.4

> <PUBCHEM_CONFORMER_DIVERSEORDER>
1

> <PUBCHEM_MMFF94_PARTIAL_CHARGES>
13
1 -0.19
10 0.19
11 0.19
12 0.19
13 0.45
2 -0.19
3 -0.19
4 -0.19
5 -0.19
6 -0.53
7 0.08
8 0.19
9 0.19

> <PUBCHEM_EFFECTIVE_ROTOR_COUNT>
0

> <PUBCHEM_PHARMACOPHORE_FEATURES>
2
1 6 donor
6 7 8 9 10 11 12 rings

> <PUBCHEM_HEAVY_ATOM_COUNT>
12

> <PUBCHEM_ATOM_DEF_STEREO_COUNT>
0

> <PUBCHEM_ATOM_UDEF_STEREO_COUNT>
0

> <PUBCHEM_BOND_DEF_STEREO_COUNT>
0

> <PUBCHEM_BOND_UDEF_STEREO_COUNT>
0

> <PUBCHEM_ISOTOPIC_ATOM_COUNT>
0

> <PUBCHEM_COMPONENT_COUNT>
1

> <PUBCHEM_CACTVS_TAUTO_COUNT>
2

> <PUBCHEM_CONFORMER_ID>
000032F100000001

> <PUBCHEM_MMFF94_ENERGY>
15.3747

> <PUBCHEM_FEATURE_SELFOVERLAP>
10.148

> <PUBCHEM_SHAPE_FINGERPRINT>
12423570 1 12463573980065000882
16945 1 18410575093258288263
18185500 45 18411135878564211543
193761 8 18410573993746660485
21040471 1 18266741290154753376
2334 1 17906171007274582023
23552423 10 17972878339309174412
241688 4 17978229357232029155
2748010 2 18122624950837738751
5084963 1 18131351912082285073
66348 1 18410575058914374145

> <PUBCHEM_SHAPE_MULTIPOLES>
204.72
2.66
2.6
0.56
0.06
0
0
0
0
-0.04
0
0
0
0

> <PUBCHEM_SHAPE_SELFOVERLAP>
443.17

> <PUBCHEM_SHAPE_VOLUME>
112.2

> <PUBCHEM_COORDINATE_TYPE>
2
5
10

$$$$
