7520
  -OEChem-06182211403D

 16 16  0     0  0  0  0  0  0999 V2000
    2.2144   -0.5267   -0.5730 S   0  0  0  0  0  0  0  0  0  0  0  0
    0.4849   -0.2243   -0.2671 C   0  0  0  0  0  0  0  0  0  0  0  0
   -0.0151    1.0769   -0.3173 C   0  0  0  0  0  0  0  0  0  0  0  0
   -0.3686   -1.2887    0.0225 C   0  0  0  0  0  0  0  0  0  0  0  0
   -1.3688    1.3136   -0.0780 C   0  0  0  0  0  0  0  0  0  0  0  0
   -1.7223   -1.0521    0.2619 C   0  0  0  0  0  0  0  0  0  0  0  0
   -2.2225    0.2490    0.2116 C   0  0  0  0  0  0  0  0  0  0  0  0
    2.9980    0.4522    0.7393 C   0  0  0  0  0  0  0  0  0  0  0  0
    0.6295    1.9212   -0.5481 H   0  0  0  0  0  0  0  0  0  0  0  0
    0.0028   -2.3096    0.0663 H   0  0  0  0  0  0  0  0  0  0  0  0
   -1.7587    2.3265   -0.1186 H   0  0  0  0  0  0  0  0  0  0  0  0
   -2.3871   -1.8808    0.4873 H   0  0  0  0  0  0  0  0  0  0  0  0
   -3.2765    0.4333    0.3975 H   0  0  0  0  0  0  0  0  0  0  0  0
    2.6127    0.1539    1.7180 H   0  0  0  0  0  0  0  0  0  0  0  0
    2.8180    1.5194    0.5869 H   0  0  0  0  0  0  0  0  0  0  0  0
    4.0770    0.2769    0.7204 H   0  0  0  0  0  0  0  0  0  0  0  0
  1  2  1  0  0  0  0
  1  8  1  0  0  0  0
  2  3  2  0  0  0  0
  2  4  1  0  0  0  0
  3  5  1  0  0  0  0
  3  9  1  0  0  0  0
  4  6  2  0  0  0  0
  4 10  1  0  0  0  0
  5  7  2  0  0  0  0
  5 11  1  0  0  0  0
  6  7  1  0  0  0  0
  6 12  1  0  0  0  0
  7 13  1  0  0  0  0
  8 14  1  0  0  0  0
  8 15  1  0  0  0  0
  8 16  1  0  0  0  0
M  END
> <PUBCHEM_COMPOUND_CID>
7520

> <PUBCHEM_CONFORMER_RMSD>
0.4

> <PUBCHEM_CONFORMER_DIVERSEORDER>
2
3
1

> <PUBCHEM_MMFF94_PARTIAL_CHARGES>
13
1 -0.33
10 0.15
11 0.15
12 0.15
13 0.15
2 0.1
3 -0.15
4 -0.15
5 -0.15
6 -0.15
7 -0.15
8 0.23
9 0.15

> <PUBCHEM_EFFECTIVE_ROTOR_COUNT>
1

> <PUBCHEM_PHARMACOPHORE_FEATURES>
2
1 8 hydrophobe
6 2 3 4 5 6 7 rings

> <PUBCHEM_HEAVY_ATOM_COUNT>
8

> <PUBCHEM_ATOM_DEF_STEREO_COUNT>
0

> <PUBCHEM_ATOM_UDEF_STEREO_COUNT>
0

> <PUBCHEM_BOND_DEF_STEREO_COUNT>
0

> <PUBCHEM_BOND_UDEF_STEREO_COUNT>
0

> <PUBCHEM_ISOTOPIC_ATOM_COUNT>
0

> <PUBCHEM_COMPONENT_COUNT>
1

> <PUBCHEM_CACTVS_TAUTO_COUNT>
1

> <PUBCHEM_CONFORMER_ID>
00001D6000000002

> <PUBCHEM_MMFF94_ENERGY>
19.1435

> <PUBCHEM_FEATURE_SELFOVERLAP>
10.148

> <PUBCHEM_SHAPE_FINGERPRINT>
10857977 72 18410009978757400994
14390081 3 18201718423072127392
15310529 11 15267345093498177855
16714656 1 18336273365997203551
16945 1 18334583433884269823
20645464 45 18202280290920584906
20653085 51 15912499986530901297
20871998 184 18200036277455800895
21040471 1 18191595137805274701
23552423 10 17969512678339740396
2748010 2 18047482123236065311
29004967 10 16988568969993671238
369184 2 18412538799714248546
5084963 1 18265064547849482054

> <PUBCHEM_SHAPE_MULTIPOLES>
168.49
3.67
1.4
0.78
2.18
0.01
0.02
0.23
0.64
-0.45
-0.02
0.3
0.02
0.3

> <PUBCHEM_SHAPE_SELFOVERLAP>
326.869

> <PUBCHEM_SHAPE_VOLUME>
103.6

> <PUBCHEM_COORDINATE_TYPE>
2
5
10

$$$$
