64152
  -OEChem-06182211343D

 27 29  0     0  0  0  0  0  0999 V2000
   -2.6926    0.0000   -0.0008 O   0  0  0  0  0  0  0  0  0  0  0  0
   -1.2723    0.0073   -0.0041 C   0  0  0  0  0  0  0  0  0  0  0  0
    0.7873    1.2603    0.7293 C   0  0  0  0  0  0  0  0  0  0  0  0
    0.7754   -1.2643    0.7308 C   0  0  0  0  0  0  0  0  0  0  0  0
    0.7880   -0.0033   -1.4553 C   0  0  0  0  0  0  0  0  0  0  0  0
   -0.7502    1.2612    0.7200 C   0  0  0  0  0  0  0  0  0  0  0  0
   -0.7619   -1.2507    0.7213 C   0  0  0  0  0  0  0  0  0  0  0  0
   -0.7494    0.0040   -1.4508 C   0  0  0  0  0  0  0  0  0  0  0  0
    1.2868   -0.0039    1.4515 C   0  0  0  0  0  0  0  0  0  0  0  0
    1.3003    1.2490   -0.7217 C   0  0  0  0  0  0  0  0  0  0  0  0
    1.2886   -1.2595   -0.7202 C   0  0  0  0  0  0  0  0  0  0  0  0
    1.1560    2.1531    1.2463 H   0  0  0  0  0  0  0  0  0  0  0  0
    1.1357   -2.1599    1.2488 H   0  0  0  0  0  0  0  0  0  0  0  0
    1.1564   -0.0055   -2.4870 H   0  0  0  0  0  0  0  0  0  0  0  0
   -1.1379    1.2953    1.7464 H   0  0  0  0  0  0  0  0  0  0  0  0
   -1.1313    2.1660    0.2292 H   0  0  0  0  0  0  0  0  0  0  0  0
   -1.1507   -2.1531    0.2317 H   0  0  0  0  0  0  0  0  0  0  0  0
   -1.1494   -1.2804    1.7480 H   0  0  0  0  0  0  0  0  0  0  0  0
   -1.1307    0.8800   -1.9913 H   0  0  0  0  0  0  0  0  0  0  0  0
   -1.1386   -0.8690   -1.9906 H   0  0  0  0  0  0  0  0  0  0  0  0
    2.3833   -0.0091    1.4808 H   0  0  0  0  0  0  0  0  0  0  0  0
    0.9402   -0.0017    2.4922 H   0  0  0  0  0  0  0  0  0  0  0  0
    0.9637    2.1527   -1.2445 H   0  0  0  0  0  0  0  0  0  0  0  0
    2.3971    1.2655   -0.7308 H   0  0  0  0  0  0  0  0  0  0  0  0
    2.3852   -1.2862   -0.7292 H   0  0  0  0  0  0  0  0  0  0  0  0
    0.9436   -2.1606   -1.2420 H   0  0  0  0  0  0  0  0  0  0  0  0
   -2.9910    0.0121    0.9246 H   0  0  0  0  0  0  0  0  0  0  0  0
  1  2  1  0  0  0  0
  1 27  1  0  0  0  0
  2  6  1  0  0  0  0
  2  7  1  0  0  0  0
  2  8  1  0  0  0  0
  3  6  1  0  0  0  0
  3  9  1  0  0  0  0
  3 10  1  0  0  0  0
  3 12  1  0  0  0  0
  4  7  1  0  0  0  0
  4  9  1  0  0  0  0
  4 11  1  0  0  0  0
  4 13  1  0  0  0  0
  5  8  1  0  0  0  0
  5 10  1  0  0  0  0
  5 11  1  0  0  0  0
  5 14  1  0  0  0  0
  6 15  1  0  0  0  0
  6 16  1  0  0  0  0
  7 17  1  0  0  0  0
  7 18  1  0  0  0  0
  8 19  1  0  0  0  0
  8 20  1  0  0  0  0
  9 21  1  0  0  0  0
  9 22  1  0  0  0  0
 10 23  1  0  0  0  0
 10 24  1  0  0  0  0
 11 25  1  0  0  0  0
 11 26  1  0  0  0  0
M  END
> <PUBCHEM_COMPOUND_CID>
64152

> <PUBCHEM_CONFORMER_RMSD>
0.4

> <PUBCHEM_CONFORMER_DIVERSEORDER>
1

> <PUBCHEM_MMFF94_PARTIAL_CHARGES>
3
1 -0.68
2 0.28
27 0.4

> <PUBCHEM_EFFECTIVE_ROTOR_COUNT>
1.2

> <PUBCHEM_PHARMACOPHORE_FEATURES>
6
1 1 acceptor
1 1 donor
6 2 3 4 6 7 9 rings
6 2 3 5 6 8 10 rings
6 2 4 5 7 8 11 rings
6 3 4 5 9 10 11 rings

> <PUBCHEM_HEAVY_ATOM_COUNT>
11

> <PUBCHEM_ATOM_DEF_STEREO_COUNT>
0

> <PUBCHEM_ATOM_UDEF_STEREO_COUNT>
0

> <PUBCHEM_BOND_DEF_STEREO_COUNT>
0

> <PUBCHEM_BOND_UDEF_STEREO_COUNT>
0

> <PUBCHEM_ISOTOPIC_ATOM_COUNT>
0

> <PUBCHEM_COMPONENT_COUNT>
1

> <PUBCHEM_CACTVS_TAUTO_COUNT>
1

> <PUBCHEM_CONFORMER_ID>
0000FA9800000001

> <PUBCHEM_MMFF94_ENERGY>
25.9694

> <PUBCHEM_FEATURE_SELFOVERLAP>
43.008

> <PUBCHEM_SHAPE_FINGERPRINT>
10702982 57 16446169095101395668
12423570 1 13513828199902292996
13024252 1 12616384312637108380
137420 1 14496967633048307842
14817 1 17120565117564495340
15557651 10 18049430736691904013
16945 1 18194997142782588948
21040471 1 17969789768154893643
5084963 1 18200319809948257681
68250623 7 17843418292611828664

> <PUBCHEM_SHAPE_MULTIPOLES>
220.51
2.04
1.49
1.49
1.12
0
0.21
0
0
-0.35
-0.22
-0.35
-0.01
0

> <PUBCHEM_SHAPE_SELFOVERLAP>
480.799

> <PUBCHEM_SHAPE_VOLUME>
115.1

> <PUBCHEM_COORDINATE_TYPE>
2
5
10

$$$$
