9269
  -OEChem-06182211353D

 28 28  0     0  0  0  0  0  0999 V2000
   -1.8288    0.7754   -0.5006 O   0  0  0  0  0  0  0  0  0  0  0  0
    0.7755    1.8273   -0.5010 O   0  0  0  0  0  0  0  0  0  0  0  0
   -0.7756   -1.8273   -0.5009 O   0  0  0  0  0  0  0  0  0  0  0  0
    1.8285   -0.7752   -0.5006 O   0  0  0  0  0  0  0  0  0  0  0  0
   -2.5881   -0.3394   -0.0300 C   0  0  0  0  0  0  0  0  0  0  0  0
    1.6748    1.4244    0.5316 C   0  0  0  0  0  0  0  0  0  0  0  0
   -1.6747   -1.4242    0.5318 C   0  0  0  0  0  0  0  0  0  0  0  0
    2.5881    0.3393   -0.0298 C   0  0  0  0  0  0  0  0  0  0  0  0
   -0.3394    2.5874   -0.0316 C   0  0  0  0  0  0  0  0  0  0  0  0
    1.4242   -1.6748    0.5312 C   0  0  0  0  0  0  0  0  0  0  0  0
   -1.4241    1.6746    0.5314 C   0  0  0  0  0  0  0  0  0  0  0  0
    0.3393   -2.5874   -0.0316 C   0  0  0  0  0  0  0  0  0  0  0  0
   -3.1247   -0.7346   -0.8991 H   0  0  0  0  0  0  0  0  0  0  0  0
   -3.3293   -0.0149    0.7085 H   0  0  0  0  0  0  0  0  0  0  0  0
    1.1245    1.0522    1.3988 H   0  0  0  0  0  0  0  0  0  0  0  0
    2.2678    2.2912    0.8418 H   0  0  0  0  0  0  0  0  0  0  0  0
    3.1251    0.7343   -0.8987 H   0  0  0  0  0  0  0  0  0  0  0  0
    3.3292    0.0146    0.7088 H   0  0  0  0  0  0  0  0  0  0  0  0
    2.2906   -2.2683    0.8418 H   0  0  0  0  0  0  0  0  0  0  0  0
    1.0517   -1.1247    1.3985 H   0  0  0  0  0  0  0  0  0  0  0  0
    0.0148   -3.3297    0.7059 H   0  0  0  0  0  0  0  0  0  0  0  0
    0.7342   -3.1230   -0.9014 H   0  0  0  0  0  0  0  0  0  0  0  0
   -2.2675   -2.2910    0.8424 H   0  0  0  0  0  0  0  0  0  0  0  0
   -1.1242   -1.0518    1.3989 H   0  0  0  0  0  0  0  0  0  0  0  0
   -1.0513    1.1242    1.3984 H   0  0  0  0  0  0  0  0  0  0  0  0
   -2.2904    2.2680    0.8425 H   0  0  0  0  0  0  0  0  0  0  0  0
   -0.7345    3.1229   -0.9013 H   0  0  0  0  0  0  0  0  0  0  0  0
   -0.0147    3.3296    0.7060 H   0  0  0  0  0  0  0  0  0  0  0  0
  1  5  1  0  0  0  0
  1 11  1  0  0  0  0
  2  6  1  0  0  0  0
  2  9  1  0  0  0  0
  3  7  1  0  0  0  0
  3 12  1  0  0  0  0
  4  8  1  0  0  0  0
  4 10  1  0  0  0  0
  5  7  1  0  0  0  0
  5 13  1  0  0  0  0
  5 14  1  0  0  0  0
  6  8  1  0  0  0  0
  6 15  1  0  0  0  0
  6 16  1  0  0  0  0
  7 23  1  0  0  0  0
  7 24  1  0  0  0  0
  8 17  1  0  0  0  0
  8 18  1  0  0  0  0
  9 11  1  0  0  0  0
  9 27  1  0  0  0  0
  9 28  1  0  0  0  0
 10 12  1  0  0  0  0
 10 19  1  0  0  0  0
 10 20  1  0  0  0  0
 11 25  1  0  0  0  0
 11 26  1  0  0  0  0
 12 21  1  0  0  0  0
 12 22  1  0  0  0  0
M  END
> <PUBCHEM_COMPOUND_CID>
9269

> <PUBCHEM_CONFORMER_RMSD>
0.6

> <PUBCHEM_CONFORMER_DIVERSEORDER>
1
4
5
8
3
6
7
2

> <PUBCHEM_MMFF94_PARTIAL_CHARGES>
12
1 -0.56
10 0.28
11 0.28
12 0.28
2 -0.56
3 -0.56
4 -0.56
5 0.28
6 0.28
7 0.28
8 0.28
9 0.28

> <PUBCHEM_EFFECTIVE_ROTOR_COUNT>
2.4

> <PUBCHEM_PHARMACOPHORE_FEATURES>
4
1 1 acceptor
1 2 acceptor
1 3 acceptor
1 4 acceptor

> <PUBCHEM_HEAVY_ATOM_COUNT>
12

> <PUBCHEM_ATOM_DEF_STEREO_COUNT>
0

> <PUBCHEM_ATOM_UDEF_STEREO_COUNT>
0

> <PUBCHEM_BOND_DEF_STEREO_COUNT>
0

> <PUBCHEM_BOND_UDEF_STEREO_COUNT>
0

> <PUBCHEM_ISOTOPIC_ATOM_COUNT>
0

> <PUBCHEM_COMPONENT_COUNT>
1

> <PUBCHEM_CACTVS_TAUTO_COUNT>
1

> <PUBCHEM_CONFORMER_ID>
0000243500000001

> <PUBCHEM_MMFF94_ENERGY>
33.0997

> <PUBCHEM_FEATURE_SELFOVERLAP>
20.313

> <PUBCHEM_SHAPE_FINGERPRINT>
14251711 518 18339071700399694466
14251717 144 18195523933971308783
15775835 57 18123198895981414224
19930374 2 17974250409630672112
19973954 147 17978511932000416323
20201158 50 18336540616184615561
22802520 49 17984725340944325382
2748010 2 18410856589704560711
2897 32 18409449197657053428
66348 1 18338516343868882995

> <PUBCHEM_SHAPE_MULTIPOLES>
223.48
3.25
3.25
0.75
0
0
-0.05
0
-0.05
0
-0.05
0
0
0

> <PUBCHEM_SHAPE_SELFOVERLAP>
420.353

> <PUBCHEM_SHAPE_VOLUME>
137.9

> <PUBCHEM_COORDINATE_TYPE>
2
5
10

$$$$
