114841
  -OEChem-06182211393D

 18 19  0     0  0  0  0  0  0999 V2000
   -0.9347   -2.8480   -0.0008 Cl  0  0  0  0  0  0  0  0  0  0  0  0
   -1.1068    3.4093   -0.0012 Cl  0  0  0  0  0  0  0  0  0  0  0  0
    2.0148   -2.7011   -0.0011 Cl  0  0  0  0  0  0  0  0  0  0  0  0
   -3.5766   -1.2700    0.0017 Cl  0  0  0  0  0  0  0  0  0  0  0  0
    0.3895   -0.3660    0.0002 C   0  0  0  0  0  0  0  0  0  0  0  0
    0.3311    1.0480    0.0001 C   0  0  0  0  0  0  0  0  0  0  0  0
   -0.8060   -1.1028   -0.0001 C   0  0  0  0  0  0  0  0  0  0  0  0
   -0.9214    1.6836    0.0000 C   0  0  0  0  0  0  0  0  0  0  0  0
    1.6419   -1.0017    0.0004 C   0  0  0  0  0  0  0  0  0  0  0  0
    1.5266    1.7848    0.0004 C   0  0  0  0  0  0  0  0  0  0  0  0
   -2.0414   -0.4548   -0.0003 C   0  0  0  0  0  0  0  0  0  0  0  0
   -2.0990    0.9357   -0.0004 C   0  0  0  0  0  0  0  0  0  0  0  0
    2.8197   -0.2538    0.0006 C   0  0  0  0  0  0  0  0  0  0  0  0
    2.7622    1.1367    0.0006 C   0  0  0  0  0  0  0  0  0  0  0  0
    1.5372    2.8714    0.0004 H   0  0  0  0  0  0  0  0  0  0  0  0
   -3.0626    1.4421   -0.0004 H   0  0  0  0  0  0  0  0  0  0  0  0
    3.8006   -0.7248    0.0006 H   0  0  0  0  0  0  0  0  0  0  0  0
    3.6795    1.7184    0.0007 H   0  0  0  0  0  0  0  0  0  0  0  0
  1  7  1  0  0  0  0
  2  8  1  0  0  0  0
  3  9  1  0  0  0  0
  4 11  1  0  0  0  0
  5  6  2  0  0  0  0
  5  7  1  0  0  0  0
  5  9  1  0  0  0  0
  6  8  1  0  0  0  0
  6 10  1  0  0  0  0
  7 11  2  0  0  0  0
  8 12  2  0  0  0  0
  9 13  2  0  0  0  0
 10 14  2  0  0  0  0
 10 15  1  0  0  0  0
 11 12  1  0  0  0  0
 12 16  1  0  0  0  0
 13 14  1  0  0  0  0
 13 17  1  0  0  0  0
 14 18  1  0  0  0  0
M  END
> <PUBCHEM_COMPOUND_CID>
114841

> <PUBCHEM_CONFORMER_RMSD>
0.4

> <PUBCHEM_CONFORMER_DIVERSEORDER>
1

> <PUBCHEM_MMFF94_PARTIAL_CHARGES>
16
1 -0.18
10 -0.15
11 0.18
12 -0.15
13 -0.15
14 -0.15
15 0.15
16 0.15
17 0.15
18 0.15
2 -0.18
3 -0.18
4 -0.18
7 0.18
8 0.18
9 0.18

> <PUBCHEM_EFFECTIVE_ROTOR_COUNT>
0

> <PUBCHEM_PHARMACOPHORE_FEATURES>
2
6 5 6 7 8 11 12 rings
6 5 6 9 10 13 14 rings

> <PUBCHEM_HEAVY_ATOM_COUNT>
14

> <PUBCHEM_ATOM_DEF_STEREO_COUNT>
0

> <PUBCHEM_ATOM_UDEF_STEREO_COUNT>
0

> <PUBCHEM_BOND_DEF_STEREO_COUNT>
0

> <PUBCHEM_BOND_UDEF_STEREO_COUNT>
0

> <PUBCHEM_ISOTOPIC_ATOM_COUNT>
0

> <PUBCHEM_COMPONENT_COUNT>
1

> <PUBCHEM_CACTVS_TAUTO_COUNT>
1

> <PUBCHEM_CONFORMER_ID>
0001C09900000001

> <PUBCHEM_MMFF94_ENERGY>
52.2639

> <PUBCHEM_FEATURE_SELFOVERLAP>
10.175

> <PUBCHEM_SHAPE_FINGERPRINT>
10967382 1 18266740362267783111
11471102 20 18266173014742682503
12382932 28 18195526119481525434
13140716 1 18194680599540409474
13380535 76 18265611163884566706
14790565 3 18121522377342399129
16945 1 18410573993978827524
193761 8 18194682562081954981
20510252 161 18343301461602459784
20511035 2 17912065171610557012
20588541 1 18265052616398821507
21501502 16 18339082570950968368
2334 1 17185595161748612525
23402539 116 18271515507060560983
23419403 2 15885090213933205145
23463225 33 18336545044153479456
23552423 10 18335144146212529366
23559900 14 17550387337821709006
2748010 2 18194399983472716182
2897 32 18409168779395239454
528886 8 18195523924837626586
589210 1 18193840344759699424
7364860 26 18342455924608009642
81228 2 18334298626103056617
8809292 202 18189336942891248594

> <PUBCHEM_SHAPE_MULTIPOLES>
295.59
4.22
3.63
0.63
0.46
0.53
0
-1.09
0
0.54
0
0.01
-0.01
0

> <PUBCHEM_SHAPE_SELFOVERLAP>
611.883

> <PUBCHEM_SHAPE_VOLUME>
165.3

> <PUBCHEM_COORDINATE_TYPE>
2
5
10

$$$$
