61143
  -OEChem-06182211363D

 17 16  0     0  0  0  0  0  0999 V2000
   -0.5779   -1.7194    0.0666 Cl  0  0  0  0  0  0  0  0  0  0  0  0
   -0.4171    0.0732   -0.0034 C   0  0  0  0  0  0  0  0  0  0  0  0
    0.9222    0.5059    0.6333 C   0  0  0  0  0  0  0  0  0  0  0  0
   -0.5306    0.5089   -1.4677 C   0  0  0  0  0  0  0  0  0  0  0  0
   -1.5778    0.6749    0.8001 C   0  0  0  0  0  0  0  0  0  0  0  0
    2.1812   -0.0434   -0.0290 C   0  0  0  0  0  0  0  0  0  0  0  0
    0.9859    1.6019    0.6257 H   0  0  0  0  0  0  0  0  0  0  0  0
    0.9374    0.2083    1.6902 H   0  0  0  0  0  0  0  0  0  0  0  0
   -1.5146    0.2602   -1.8820 H   0  0  0  0  0  0  0  0  0  0  0  0
    0.2197    0.0228   -2.1002 H   0  0  0  0  0  0  0  0  0  0  0  0
   -0.3974    1.5923   -1.5643 H   0  0  0  0  0  0  0  0  0  0  0  0
   -2.5491    0.3730    0.3913 H   0  0  0  0  0  0  0  0  0  0  0  0
   -1.5451    0.3596    1.8494 H   0  0  0  0  0  0  0  0  0  0  0  0
   -1.5394    1.7701    0.7827 H   0  0  0  0  0  0  0  0  0  0  0  0
    2.2114   -1.1363   -0.0102 H   0  0  0  0  0  0  0  0  0  0  0  0
    3.0663    0.3181    0.5052 H   0  0  0  0  0  0  0  0  0  0  0  0
    2.2676    0.2904   -1.0668 H   0  0  0  0  0  0  0  0  0  0  0  0
  1  2  1  0  0  0  0
  2  3  1  0  0  0  0
  2  4  1  0  0  0  0
  2  5  1  0  0  0  0
  3  6  1  0  0  0  0
  3  7  1  0  0  0  0
  3  8  1  0  0  0  0
  4  9  1  0  0  0  0
  4 10  1  0  0  0  0
  4 11  1  0  0  0  0
  5 12  1  0  0  0  0
  5 13  1  0  0  0  0
  5 14  1  0  0  0  0
  6 15  1  0  0  0  0
  6 16  1  0  0  0  0
  6 17  1  0  0  0  0
M  END
> <PUBCHEM_COMPOUND_CID>
61143

> <PUBCHEM_CONFORMER_RMSD>
0.4

> <PUBCHEM_CONFORMER_DIVERSEORDER>
1
2
3

> <PUBCHEM_MMFF94_PARTIAL_CHARGES>
2
1 -0.29
2 0.29

> <PUBCHEM_EFFECTIVE_ROTOR_COUNT>
1

> <PUBCHEM_PHARMACOPHORE_FEATURES>
2
1 6 hydrophobe
3 2 4 5 hydrophobe

> <PUBCHEM_HEAVY_ATOM_COUNT>
6

> <PUBCHEM_ATOM_DEF_STEREO_COUNT>
0

> <PUBCHEM_ATOM_UDEF_STEREO_COUNT>
0

> <PUBCHEM_BOND_DEF_STEREO_COUNT>
0

> <PUBCHEM_BOND_UDEF_STEREO_COUNT>
0

> <PUBCHEM_ISOTOPIC_ATOM_COUNT>
0

> <PUBCHEM_COMPONENT_COUNT>
1

> <PUBCHEM_CACTVS_TAUTO_COUNT>
1

> <PUBCHEM_CONFORMER_ID>
0000EED700000001

> <PUBCHEM_MMFF94_ENERGY>
8.0533

> <PUBCHEM_FEATURE_SELFOVERLAP>
10.149

> <PUBCHEM_SHAPE_FINGERPRINT>
137420 1 11647689941097161891
16714656 1 17967819340228160950
20096714 4 17417812794628754384
21040471 1 18342745074263685776
24536 1 18057304266754966424
29004967 10 16009042716729754456
5943 1 16620912992029229175

> <PUBCHEM_SHAPE_MULTIPOLES>
125.35
2.09
1.31
1.15
1.16
0.78
0.38
-0.22
-0.33
-0.43
-0.05
-0.29
-0.3
-0.02

> <PUBCHEM_SHAPE_SELFOVERLAP>
211.275

> <PUBCHEM_SHAPE_VOLUME>
87.7

> <PUBCHEM_COORDINATE_TYPE>
2
5
10

$$$$
