37034
  -OEChem-06182211393D

 22 23  0     0  0  0  0  0  0999 V2000
    0.4969    1.9690   -1.9959 Cl  0  0  0  0  0  0  0  0  0  0  0  0
   -0.4969    1.9687    1.9961 Cl  0  0  0  0  0  0  0  0  0  0  0  0
    3.7203   -1.9650    1.6324 Cl  0  0  0  0  0  0  0  0  0  0  0  0
   -3.7203   -1.9648   -1.6326 Cl  0  0  0  0  0  0  0  0  0  0  0  0
    5.2213   -0.0209   -0.4739 Cl  0  0  0  0  0  0  0  0  0  0  0  0
   -5.2213   -0.0209    0.4739 Cl  0  0  0  0  0  0  0  0  0  0  0  0
    0.7218    0.0345   -0.0728 C   0  0  0  0  0  0  0  0  0  0  0  0
   -0.7218    0.0344    0.0727 C   0  0  0  0  0  0  0  0  0  0  0  0
    1.3689    0.8721   -0.9812 C   0  0  0  0  0  0  0  0  0  0  0  0
   -1.3689    0.8720    0.9814 C   0  0  0  0  0  0  0  0  0  0  0  0
    1.4648   -0.8348    0.7258 C   0  0  0  0  0  0  0  0  0  0  0  0
   -1.4648   -0.8347   -0.7260 C   0  0  0  0  0  0  0  0  0  0  0  0
    2.8550   -0.8663    0.6161 C   0  0  0  0  0  0  0  0  0  0  0  0
   -2.8550   -0.8663   -0.6162 C   0  0  0  0  0  0  0  0  0  0  0  0
    2.7591    0.8404   -1.0910 C   0  0  0  0  0  0  0  0  0  0  0  0
   -2.7591    0.8403    1.0911 C   0  0  0  0  0  0  0  0  0  0  0  0
    3.5021   -0.0288   -0.2924 C   0  0  0  0  0  0  0  0  0  0  0  0
   -3.5021   -0.0288    0.2924 C   0  0  0  0  0  0  0  0  0  0  0  0
    0.9615   -1.4894    1.4355 H   0  0  0  0  0  0  0  0  0  0  0  0
   -0.9615   -1.4892   -1.4357 H   0  0  0  0  0  0  0  0  0  0  0  0
    3.2634    1.4942   -1.7998 H   0  0  0  0  0  0  0  0  0  0  0  0
   -3.2634    1.4941    1.8000 H   0  0  0  0  0  0  0  0  0  0  0  0
  1  9  1  0  0  0  0
  2 10  1  0  0  0  0
  3 13  1  0  0  0  0
  4 14  1  0  0  0  0
  5 17  1  0  0  0  0
  6 18  1  0  0  0  0
  7  8  1  0  0  0  0
  7  9  1  0  0  0  0
  7 11  2  0  0  0  0
  8 10  1  0  0  0  0
  8 12  2  0  0  0  0
  9 15  2  0  0  0  0
 10 16  2  0  0  0  0
 11 13  1  0  0  0  0
 11 19  1  0  0  0  0
 12 14  1  0  0  0  0
 12 20  1  0  0  0  0
 13 17  2  0  0  0  0
 14 18  2  0  0  0  0
 15 17  1  0  0  0  0
 15 21  1  0  0  0  0
 16 18  1  0  0  0  0
 16 22  1  0  0  0  0
M  END
> <PUBCHEM_COMPOUND_CID>
37034

> <PUBCHEM_CONFORMER_RMSD>
0.6

> <PUBCHEM_CONFORMER_DIVERSEORDER>
1
2

> <PUBCHEM_MMFF94_PARTIAL_CHARGES>
20
1 -0.18
10 0.18
11 -0.15
12 -0.15
13 0.18
14 0.18
15 -0.15
16 -0.15
17 0.18
18 0.18
19 0.15
2 -0.18
20 0.15
21 0.15
22 0.15
3 -0.18
4 -0.18
5 -0.18
6 -0.18
9 0.18

> <PUBCHEM_EFFECTIVE_ROTOR_COUNT>
1

> <PUBCHEM_PHARMACOPHORE_FEATURES>
2
6 7 9 11 13 15 17 rings
6 8 10 12 14 16 18 rings

> <PUBCHEM_HEAVY_ATOM_COUNT>
18

> <PUBCHEM_ATOM_DEF_STEREO_COUNT>
0

> <PUBCHEM_ATOM_UDEF_STEREO_COUNT>
0

> <PUBCHEM_BOND_DEF_STEREO_COUNT>
0

> <PUBCHEM_BOND_UDEF_STEREO_COUNT>
0

> <PUBCHEM_ISOTOPIC_ATOM_COUNT>
0

> <PUBCHEM_COMPONENT_COUNT>
1

> <PUBCHEM_CACTVS_TAUTO_COUNT>
1

> <PUBCHEM_CONFORMER_ID>
000090AA00000001

> <PUBCHEM_MMFF94_ENERGY>
48.5235

> <PUBCHEM_FEATURE_SELFOVERLAP>
10.149

> <PUBCHEM_SHAPE_FINGERPRINT>
10062212 137 18342174496965668663
10366900 7 15626228991676293406
11578080 2 18122307325116906244
11582403 64 15654053490753886549
12236239 1 18410580582221224298
12553582 1 18060414733710752123
13134695 92 17748825232815845868
13140716 1 17605285180196079024
13911987 19 16879378730009369334
14115302 16 18341056310745833807
14178342 30 16629982017855622287
14576447 43 18188764071621441214
14787075 74 18056471983919212384
15375358 24 16008754623741034656
15375462 189 18412263956082679651
16945 1 18410848863058486085
17357779 13 17168137927803033116
1813 80 18116442440469332662
18175812 5 15770055042532780968
18186145 218 15285351782625766143
200 152 18186519903695095713
20279233 1 15575003861919805250
20600515 1 17346612880117387049
20645477 70 17168141200774263058
22112679 90 18270981105654873405
2297311 6 17418107507095532692
23175994 123 16660371371952740020
232386 152 18060139890115710133
23366157 5 17983281918637705201
23402539 116 17203608173004958573
23419403 2 17696423629480392413
23557571 272 16845302600499543953
23559900 14 17274833406839179108
2748010 2 17243886724673775724
474 4 18118127098452337740
5281201 14 15936408927054204231
5902787 121 17774436208880373035
77492 1 18410580586516191589
81228 2 16844195397017734353
90316 7 17988923319177941225
9999458 23 14764343839092856452

> <PUBCHEM_SHAPE_MULTIPOLES>
381.65
9.01
1.85
1.78
0
0.01
0
-3.35
0
0
0
0
0.44
-2.27

> <PUBCHEM_SHAPE_SELFOVERLAP>
773.574

> <PUBCHEM_SHAPE_VOLUME>
215.2

> <PUBCHEM_COORDINATE_TYPE>
2
5
10

$$$$
