36188
  -OEChem-06182211393D

 22 23  0     0  0  0  0  0  0999 V2000
    0.7762   -2.3871    0.0821 Cl  0  0  0  0  0  0  0  0  0  0  0  0
    3.9139   -2.0374   -0.1360 Cl  0  0  0  0  0  0  0  0  0  0  0  0
   -3.8578    0.0332   -2.3115 Cl  0  0  0  0  0  0  0  0  0  0  0  0
    5.1364    0.9086   -0.2012 Cl  0  0  0  0  0  0  0  0  0  0  0  0
   -5.2674   -0.1038    0.5979 Cl  0  0  0  0  0  0  0  0  0  0  0  0
    0.6619    0.3222    0.1130 C   0  0  0  0  0  0  0  0  0  0  0  0
   -0.7777    0.2190    0.2139 C   0  0  0  0  0  0  0  0  0  0  0  0
    1.4921   -0.7999    0.0453 C   0  0  0  0  0  0  0  0  0  0  0  0
    1.2243    1.6009    0.0834 C   0  0  0  0  0  0  0  0  0  0  0  0
   -1.5576    0.1788   -0.9419 C   0  0  0  0  0  0  0  0  0  0  0  0
   -1.3858    0.1596    1.4679 C   0  0  0  0  0  0  0  0  0  0  0  0
    2.8747   -0.6443   -0.0515 C   0  0  0  0  0  0  0  0  0  0  0  0
    2.6069    1.7567   -0.0134 C   0  0  0  0  0  0  0  0  0  0  0  0
   -2.9454    0.0793   -0.8437 C   0  0  0  0  0  0  0  0  0  0  0  0
   -2.7736    0.0602    1.5662 C   0  0  0  0  0  0  0  0  0  0  0  0
    3.4322    0.6341   -0.0808 C   0  0  0  0  0  0  0  0  0  0  0  0
   -3.5534    0.0199    0.4103 C   0  0  0  0  0  0  0  0  0  0  0  0
    0.5987    2.4895    0.1346 H   0  0  0  0  0  0  0  0  0  0  0  0
   -1.0824    0.2248   -1.9201 H   0  0  0  0  0  0  0  0  0  0  0  0
   -0.7925    0.1895    2.3789 H   0  0  0  0  0  0  0  0  0  0  0  0
    3.0236    2.7606   -0.0351 H   0  0  0  0  0  0  0  0  0  0  0  0
   -3.2307    0.0149    2.5515 H   0  0  0  0  0  0  0  0  0  0  0  0
  1  8  1  0  0  0  0
  2 12  1  0  0  0  0
  3 14  1  0  0  0  0
  4 16  1  0  0  0  0
  5 17  1  0  0  0  0
  6  7  1  0  0  0  0
  6  8  2  0  0  0  0
  6  9  1  0  0  0  0
  7 10  2  0  0  0  0
  7 11  1  0  0  0  0
  8 12  1  0  0  0  0
  9 13  2  0  0  0  0
  9 18  1  0  0  0  0
 10 14  1  0  0  0  0
 10 19  1  0  0  0  0
 11 15  2  0  0  0  0
 11 20  1  0  0  0  0
 12 16  2  0  0  0  0
 13 16  1  0  0  0  0
 13 21  1  0  0  0  0
 14 17  2  0  0  0  0
 15 17  1  0  0  0  0
 15 22  1  0  0  0  0
M  END
> <PUBCHEM_COMPOUND_CID>
36188

> <PUBCHEM_CONFORMER_RMSD>
0.6

> <PUBCHEM_CONFORMER_DIVERSEORDER>
1
3
4
5
2

> <PUBCHEM_MMFF94_PARTIAL_CHARGES>
20
1 -0.18
10 -0.15
11 -0.15
12 0.18
13 -0.15
14 0.18
15 -0.15
16 0.18
17 0.18
18 0.15
19 0.15
2 -0.18
20 0.15
21 0.15
22 0.15
3 -0.18
4 -0.18
5 -0.18
8 0.18
9 -0.15

> <PUBCHEM_EFFECTIVE_ROTOR_COUNT>
1

> <PUBCHEM_PHARMACOPHORE_FEATURES>
2
6 6 8 9 12 13 16 rings
6 7 10 11 14 15 17 rings

> <PUBCHEM_HEAVY_ATOM_COUNT>
17

> <PUBCHEM_ATOM_DEF_STEREO_COUNT>
0

> <PUBCHEM_ATOM_UDEF_STEREO_COUNT>
0

> <PUBCHEM_BOND_DEF_STEREO_COUNT>
0

> <PUBCHEM_BOND_UDEF_STEREO_COUNT>
0

> <PUBCHEM_ISOTOPIC_ATOM_COUNT>
0

> <PUBCHEM_COMPONENT_COUNT>
1

> <PUBCHEM_CACTVS_TAUTO_COUNT>
1

> <PUBCHEM_CONFORMER_ID>
00008D5C00000001

> <PUBCHEM_MMFF94_ENERGY>
49.2217

> <PUBCHEM_FEATURE_SELFOVERLAP>
10.149

> <PUBCHEM_SHAPE_FINGERPRINT>
10498660 4 15864340312488494989
11471102 20 18409451379853796248
12119455 92 18187077386476870184
12236239 1 17703795820584469921
12403259 415 17676488319779642527
12500047 106 16443056214295037232
13140716 1 18122906688704597864
13538477 17 17203605995561793893
13583140 156 17096074892009937664
13760787 19 17275387603374963911
13760787 5 18343298150076802614
14251717 144 18411984645917347906
14386348 63 17821453464566370545
14576447 43 17988348377712492694
15219456 202 17967531259523125217
15309172 13 18409172142407379802
15375358 24 17749384862527269372
15375462 189 17846493708365989771
16945 1 18410855443006347450
1813 80 17986128313865955230
18186145 218 18341609356045877612
19422 9 17704070681211383063
200 152 18272368668170405185
20279233 1 17676212380936609784
204376 136 18336551628860518720
20645477 56 17385444345202320153
20645477 70 18334858281964222314
21639500 275 18339920514833700360
22112679 90 17346597448051563201
23402539 116 16487254391325042324
23402655 69 18271805696563085101
23557571 272 16950282909925828517
23559900 14 16733260141469080282
23598291 2 17988640744531080510
33824 294 18335424556285608522
34797466 226 16516266088509468022
474 4 17772739709810618648
5104073 3 18339084791465035105
5281201 14 17822011995019647589
573450 72 16845290518824747951
633830 44 18200329761392718404
69090 78 18040998488030226579
77492 1 17703793617229291297
8272917 22 18270128911571657363

> <PUBCHEM_SHAPE_MULTIPOLES>
359.2
9.66
1.72
1.36
1.23
0.75
-0.41
-0.44
-0.95
-2.39
-0.01
2.18
-0.05
0.04

> <PUBCHEM_SHAPE_SELFOVERLAP>
733.819

> <PUBCHEM_SHAPE_VOLUME>
200.2

> <PUBCHEM_COORDINATE_TYPE>
2
5
10

$$$$
