7473
  -OEChem-06182211363D

 17 17  0     0  0  0  0  0  0999 V2000
    2.7453    1.0977    0.0005 O   0  5  0  0  0  0  0  0  0  0  0  0
    2.7456   -1.0976    0.0002 O   0  0  0  0  0  0  0  0  0  0  0  0
    2.1371    0.0000    0.0000 N   0  3  0  0  0  0  0  0  0  0  0  0
   -2.0723    0.0000    0.0001 C   0  0  0  0  0  0  0  0  0  0  0  0
    0.7175   -0.0002   -0.0005 C   0  0  0  0  0  0  0  0  0  0  0  0
   -1.3747    1.2080   -0.0001 C   0  0  0  0  0  0  0  0  0  0  0  0
   -1.3749   -1.2080    0.0000 C   0  0  0  0  0  0  0  0  0  0  0  0
    0.0202    1.2079   -0.0004 C   0  0  0  0  0  0  0  0  0  0  0  0
    0.0200   -1.2081   -0.0003 C   0  0  0  0  0  0  0  0  0  0  0  0
   -3.5637    0.0001    0.0004 C   0  0  0  0  0  0  0  0  0  0  0  0
   -1.9072    2.1555   -0.0020 H   0  0  0  0  0  0  0  0  0  0  0  0
   -1.9074   -2.1553   -0.0016 H   0  0  0  0  0  0  0  0  0  0  0  0
    0.5301    2.1679   -0.0009 H   0  0  0  0  0  0  0  0  0  0  0  0
    0.5298   -2.1681   -0.0006 H   0  0  0  0  0  0  0  0  0  0  0  0
   -3.9587   -0.8795    0.5199 H   0  0  0  0  0  0  0  0  0  0  0  0
   -3.9588    0.8813    0.5172 H   0  0  0  0  0  0  0  0  0  0  0  0
   -3.9395   -0.0014   -1.0276 H   0  0  0  0  0  0  0  0  0  0  0  0
  1  3  1  0  0  0  0
  2  3  2  0  0  0  0
  3  5  1  0  0  0  0
  4  6  2  0  0  0  0
  4  7  1  0  0  0  0
  4 10  1  0  0  0  0
  5  8  2  0  0  0  0
  5  9  1  0  0  0  0
  6  8  1  0  0  0  0
  6 11  1  0  0  0  0
  7  9  2  0  0  0  0
  7 12  1  0  0  0  0
  8 13  1  0  0  0  0
  9 14  1  0  0  0  0
 10 15  1  0  0  0  0
 10 16  1  0  0  0  0
 10 17  1  0  0  0  0
M  CHG  2   1  -1   3   1
M  END
> <PUBCHEM_COMPOUND_CID>
7473

> <PUBCHEM_CONFORMER_RMSD>
0.4

> <PUBCHEM_CONFORMER_DIVERSEORDER>
1

> <PUBCHEM_MMFF94_PARTIAL_CHARGES>
14
1 -0.52
10 0.14
11 0.15
12 0.15
13 0.15
14 0.15
2 -0.52
3 0.91
4 -0.14
5 0.13
6 -0.15
7 -0.15
8 -0.15
9 -0.15

> <PUBCHEM_EFFECTIVE_ROTOR_COUNT>
1

> <PUBCHEM_PHARMACOPHORE_FEATURES>
4
1 1 acceptor
1 1 anion
1 2 acceptor
6 4 5 6 7 8 9 rings

> <PUBCHEM_HEAVY_ATOM_COUNT>
10

> <PUBCHEM_ATOM_DEF_STEREO_COUNT>
0

> <PUBCHEM_ATOM_UDEF_STEREO_COUNT>
0

> <PUBCHEM_BOND_DEF_STEREO_COUNT>
0

> <PUBCHEM_BOND_UDEF_STEREO_COUNT>
0

> <PUBCHEM_ISOTOPIC_ATOM_COUNT>
0

> <PUBCHEM_COMPONENT_COUNT>
1

> <PUBCHEM_CACTVS_TAUTO_COUNT>
1

> <PUBCHEM_CONFORMER_ID>
00001D3100000001

> <PUBCHEM_MMFF94_ENERGY>
27.9819

> <PUBCHEM_FEATURE_SELFOVERLAP>
20.379

> <PUBCHEM_SHAPE_FINGERPRINT>
10219947 1 18410859858638851083
10857977 72 18337102462352567097
12032990 46 18409456877449170171
12897270 3 18409729534493726517
14325111 11 18410855456091793765
16945 1 18410575084852969991
193761 8 17545882629442837861
20871998 184 18057611060506235159
21040471 1 18410856529601405249
23235685 24 18411132546001782273
23402655 69 18195509421762203861
23552423 10 18260550039047598478
2748010 2 18122625221700279183
29004967 10 15574712491058908360
369184 2 18411135839914592259
5084963 1 18271241621153762736
528886 8 18411695521603694723

> <PUBCHEM_SHAPE_MULTIPOLES>
189.08
4.4
1.41
0.59
0.02
0
0
0
0
-0.19
0
0.08
0
0

> <PUBCHEM_SHAPE_SELFOVERLAP>
393.368

> <PUBCHEM_SHAPE_VOLUME>
108.7

> <PUBCHEM_COORDINATE_TYPE>
2
5
10

$$$$
