26541
  -OEChem-06182211353D

 50 52  0     0  0  0  0  0  0999 V2000
   -0.0030   -2.7886    0.6242 O   0  0  0  0  0  0  0  0  0  0  0  0
    0.0024    2.7901    0.6242 O   0  0  0  0  0  0  0  0  0  0  0  0
   -2.4407   -1.2982    0.5086 O   0  0  0  0  0  0  0  0  0  0  0  0
    2.4361   -1.3021    0.4997 O   0  0  0  0  0  0  0  0  0  0  0  0
   -2.4352    1.3020    0.4988 O   0  0  0  0  0  0  0  0  0  0  0  0
    2.4392    1.2982    0.5062 O   0  0  0  0  0  0  0  0  0  0  0  0
   -1.1837   -3.1493    1.3420 C   0  0  0  0  0  0  0  0  0  0  0  0
    1.1811   -3.1541    1.3341 C   0  0  0  0  0  0  0  0  0  0  0  0
   -1.1813    3.1534    1.3357 C   0  0  0  0  0  0  0  0  0  0  0  0
    1.1834    3.1482    1.3428 C   0  0  0  0  0  0  0  0  0  0  0  0
   -2.3940   -2.7272    0.5196 C   0  0  0  0  0  0  0  0  0  0  0  0
    2.3879   -2.7310    0.5069 C   0  0  0  0  0  0  0  0  0  0  0  0
   -2.3882    2.7308    0.5085 C   0  0  0  0  0  0  0  0  0  0  0  0
    2.3935    2.7270    0.5194 C   0  0  0  0  0  0  0  0  0  0  0  0
   -3.4569   -0.7028   -0.1974 C   0  0  0  0  0  0  0  0  0  0  0  0
    3.4544   -0.7056   -0.2022 C   0  0  0  0  0  0  0  0  0  0  0  0
   -3.4540    0.7057   -0.2025 C   0  0  0  0  0  0  0  0  0  0  0  0
    3.4564    0.7028   -0.1983 C   0  0  0  0  0  0  0  0  0  0  0  0
   -4.4599   -1.3948   -0.8858 C   0  0  0  0  0  0  0  0  0  0  0  0
    4.4552   -1.3967   -0.8948 C   0  0  0  0  0  0  0  0  0  0  0  0
   -4.4538    1.3967   -0.8964 C   0  0  0  0  0  0  0  0  0  0  0  0
    4.4594    1.3949   -0.8865 C   0  0  0  0  0  0  0  0  0  0  0  0
    5.4514    0.6953   -1.5740 C   0  0  0  0  0  0  0  0  0  0  0  0
    5.4493   -0.6959   -1.5783 C   0  0  0  0  0  0  0  0  0  0  0  0
   -5.4510   -0.6951   -1.5746 C   0  0  0  0  0  0  0  0  0  0  0  0
   -5.4480    0.6961   -1.5799 C   0  0  0  0  0  0  0  0  0  0  0  0
   -1.1848   -2.6396    2.3121 H   0  0  0  0  0  0  0  0  0  0  0  0
   -1.1976   -4.2339    1.4935 H   0  0  0  0  0  0  0  0  0  0  0  0
    1.1937   -4.2393    1.4814 H   0  0  0  0  0  0  0  0  0  0  0  0
    1.1886   -2.6481    2.3061 H   0  0  0  0  0  0  0  0  0  0  0  0
   -1.1946    4.2384    1.4849 H   0  0  0  0  0  0  0  0  0  0  0  0
   -1.1879    2.6456    2.3068 H   0  0  0  0  0  0  0  0  0  0  0  0
    1.1843    2.6364    2.3118 H   0  0  0  0  0  0  0  0  0  0  0  0
    1.1981    4.2325    1.4966 H   0  0  0  0  0  0  0  0  0  0  0  0
   -2.2895   -3.1027   -0.5052 H   0  0  0  0  0  0  0  0  0  0  0  0
   -3.3005   -3.1248    0.9897 H   0  0  0  0  0  0  0  0  0  0  0  0
    3.2959   -3.1313    0.9716 H   0  0  0  0  0  0  0  0  0  0  0  0
    2.2782   -3.1030   -0.5185 H   0  0  0  0  0  0  0  0  0  0  0  0
   -3.2965    3.1296    0.9743 H   0  0  0  0  0  0  0  0  0  0  0  0
   -2.2794    3.1048   -0.5163 H   0  0  0  0  0  0  0  0  0  0  0  0
    2.2890    3.1042   -0.5046 H   0  0  0  0  0  0  0  0  0  0  0  0
    3.3002    3.1234    0.9901 H   0  0  0  0  0  0  0  0  0  0  0  0
   -4.5007   -2.4793   -0.9065 H   0  0  0  0  0  0  0  0  0  0  0  0
    4.4919   -2.4811   -0.9231 H   0  0  0  0  0  0  0  0  0  0  0  0
   -4.4896    2.4813   -0.9257 H   0  0  0  0  0  0  0  0  0  0  0  0
    4.4995    2.4795   -0.9082 H   0  0  0  0  0  0  0  0  0  0  0  0
    6.2271    1.2381   -2.1065 H   0  0  0  0  0  0  0  0  0  0  0  0
    6.2234   -1.2379   -2.1141 H   0  0  0  0  0  0  0  0  0  0  0  0
   -6.2267   -1.2379   -2.1072 H   0  0  0  0  0  0  0  0  0  0  0  0
   -6.2213    1.2382   -2.1167 H   0  0  0  0  0  0  0  0  0  0  0  0
  1  7  1  0  0  0  0
  1  8  1  0  0  0  0
  2  9  1  0  0  0  0
  2 10  1  0  0  0  0
  3 11  1  0  0  0  0
  3 15  1  0  0  0  0
  4 12  1  0  0  0  0
  4 16  1  0  0  0  0
  5 13  1  0  0  0  0
  5 17  1  0  0  0  0
  6 14  1  0  0  0  0
  6 18  1  0  0  0  0
  7 11  1  0  0  0  0
  7 27  1  0  0  0  0
  7 28  1  0  0  0  0
  8 12  1  0  0  0  0
  8 29  1  0  0  0  0
  8 30  1  0  0  0  0
  9 13  1  0  0  0  0
  9 31  1  0  0  0  0
  9 32  1  0  0  0  0
 10 14  1  0  0  0  0
 10 33  1  0  0  0  0
 10 34  1  0  0  0  0
 11 35  1  0  0  0  0
 11 36  1  0  0  0  0
 12 37  1  0  0  0  0
 12 38  1  0  0  0  0
 13 39  1  0  0  0  0
 13 40  1  0  0  0  0
 14 41  1  0  0  0  0
 14 42  1  0  0  0  0
 15 17  1  0  0  0  0
 15 19  2  0  0  0  0
 16 18  1  0  0  0  0
 16 20  2  0  0  0  0
 17 21  2  0  0  0  0
 18 22  2  0  0  0  0
 19 25  1  0  0  0  0
 19 43  1  0  0  0  0
 20 24  1  0  0  0  0
 20 44  1  0  0  0  0
 21 26  1  0  0  0  0
 21 45  1  0  0  0  0
 22 23  1  0  0  0  0
 22 46  1  0  0  0  0
 23 24  2  0  0  0  0
 23 47  1  0  0  0  0
 24 48  1  0  0  0  0
 25 26  2  0  0  0  0
 25 49  1  0  0  0  0
 26 50  1  0  0  0  0
M  END
> <PUBCHEM_COMPOUND_CID>
26541

> <PUBCHEM_CONFORMER_RMSD>
0.6

> <PUBCHEM_CONFORMER_DIVERSEORDER>
1
10
9
12
11
5
6
13
8
16
4
7
3
15
14
2

> <PUBCHEM_MMFF94_PARTIAL_CHARGES>
34
1 -0.56
10 0.28
11 0.28
12 0.28
13 0.28
14 0.28
15 0.08
16 0.08
17 0.08
18 0.08
19 -0.15
2 -0.56
20 -0.15
21 -0.15
22 -0.15
23 -0.15
24 -0.15
25 -0.15
26 -0.15
3 -0.36
4 -0.36
43 0.15
44 0.15
45 0.15
46 0.15
47 0.15
48 0.15
49 0.15
5 -0.36
50 0.15
6 -0.36
7 0.28
8 0.28
9 0.28

> <PUBCHEM_EFFECTIVE_ROTOR_COUNT>
2.8

> <PUBCHEM_PHARMACOPHORE_FEATURES>
8
1 1 acceptor
1 2 acceptor
1 3 acceptor
1 4 acceptor
1 5 acceptor
1 6 acceptor
6 15 17 19 21 25 26 rings
6 16 18 20 22 23 24 rings

> <PUBCHEM_HEAVY_ATOM_COUNT>
26

> <PUBCHEM_ATOM_DEF_STEREO_COUNT>
0

> <PUBCHEM_ATOM_UDEF_STEREO_COUNT>
0

> <PUBCHEM_BOND_DEF_STEREO_COUNT>
0

> <PUBCHEM_BOND_UDEF_STEREO_COUNT>
0

> <PUBCHEM_ISOTOPIC_ATOM_COUNT>
0

> <PUBCHEM_COMPONENT_COUNT>
1

> <PUBCHEM_CACTVS_TAUTO_COUNT>
1

> <PUBCHEM_CONFORMER_ID>
000067AD00000001

> <PUBCHEM_MMFF94_ENERGY>
89.1586

> <PUBCHEM_FEATURE_SELFOVERLAP>
40.633

> <PUBCHEM_SHAPE_FINGERPRINT>
10498660 4 18335703879220011650
108634 29 18340779216915313982
11513181 2 17913494527900076166
12124843 1 18410573985151452503
12553582 1 18412831265412342305
12769317 202 18261099755975088047
12788726 201 18200031716353286065
13122387 1 18410575119022817755
13402501 40 18338516459832999965
14117953 113 16608283885339964492
14279260 333 18267872688464611814
14395042 70 14969592702391154001
14931854 50 18410292484415493380
15274700 21 18041569135256294779
15322534 239 18411142402935830955
15322687 12 18334848412044596963
15351339 4 18336819810401895323
16067689 391 17769688346316862622
17138139 8 18342173337123817672
17627616 140 18118405046828076650
17909252 39 17775287123817507406
18608769 82 18042413594024198411
20775438 99 17483644047793082455
21054139 6 18338802209246688764
221357 26 18341338893481715574
23559900 14 18339917237995654285
238918 7 17481410995870145560
3298306 158 18337092571449053095
3493558 16 17175766563311078676
354706 35 17185288376508924421
437795 51 18260833705296335619
44344687 77 17549802831464600071
463206 1 18340775861771000192
474144 1 17897429619293392330
508706 21 18044934816555878867
6371009 1 18189602853012064578

> <PUBCHEM_SHAPE_MULTIPOLES>
499.85
12.6
4.6
1.53
0.01
0
0.25
0
9.43
0
-2.92
0
0
0.02

> <PUBCHEM_SHAPE_SELFOVERLAP>
1042.253

> <PUBCHEM_SHAPE_VOLUME>
282.3

> <PUBCHEM_COORDINATE_TYPE>
2
5
10

$$$$
