12743
  -OEChem-06182211383D

 33 32  0     0  0  0  0  0  0999 V2000
    0.0002   -0.3028    0.0000 O   0  0  0  0  0  0  0  0  0  0  0  0
    2.3918   -0.4179    0.0291 C   0  0  0  0  0  0  0  0  0  0  0  0
   -2.3918   -0.4178   -0.0291 C   0  0  0  0  0  0  0  0  0  0  0  0
    3.6951    0.3779    0.0294 C   0  0  0  0  0  0  0  0  0  0  0  0
   -3.6951    0.3780   -0.0293 C   0  0  0  0  0  0  0  0  0  0  0  0
    1.1748    0.4963    0.0143 C   0  0  0  0  0  0  0  0  0  0  0  0
   -1.1750    0.4966   -0.0143 C   0  0  0  0  0  0  0  0  0  0  0  0
    4.9115   -0.5471    0.0015 C   0  0  0  0  0  0  0  0  0  0  0  0
   -4.9115   -0.5471   -0.0015 C   0  0  0  0  0  0  0  0  0  0  0  0
    6.2107    0.2420   -0.0326 C   0  0  0  0  0  0  0  0  0  0  0  0
   -6.2108    0.2419    0.0326 C   0  0  0  0  0  0  0  0  0  0  0  0
    2.3458   -1.0722    0.9087 H   0  0  0  0  0  0  0  0  0  0  0  0
    2.3537   -1.0838   -0.8422 H   0  0  0  0  0  0  0  0  0  0  0  0
   -2.3458   -1.0721   -0.9087 H   0  0  0  0  0  0  0  0  0  0  0  0
   -2.3536   -1.0836    0.8422 H   0  0  0  0  0  0  0  0  0  0  0  0
    3.7374    1.0162    0.9203 H   0  0  0  0  0  0  0  0  0  0  0  0
    3.7198    1.0408   -0.8443 H   0  0  0  0  0  0  0  0  0  0  0  0
   -3.7374    1.0163   -0.9201 H   0  0  0  0  0  0  0  0  0  0  0  0
   -3.7199    1.0408    0.8443 H   0  0  0  0  0  0  0  0  0  0  0  0
    1.1949    1.1339   -0.8773 H   0  0  0  0  0  0  0  0  0  0  0  0
    1.1742    1.1347    0.9056 H   0  0  0  0  0  0  0  0  0  0  0  0
   -1.1948    1.1341    0.8773 H   0  0  0  0  0  0  0  0  0  0  0  0
   -1.1742    1.1349   -0.9056 H   0  0  0  0  0  0  0  0  0  0  0  0
    4.9061   -1.1958    0.8851 H   0  0  0  0  0  0  0  0  0  0  0  0
    4.8649   -1.1980   -0.8793 H   0  0  0  0  0  0  0  0  0  0  0  0
   -4.9060   -1.1958   -0.8851 H   0  0  0  0  0  0  0  0  0  0  0  0
   -4.8649   -1.1981    0.8793 H   0  0  0  0  0  0  0  0  0  0  0  0
    6.2617    0.8759   -0.9236 H   0  0  0  0  0  0  0  0  0  0  0  0
    6.3041    0.8820    0.8506 H   0  0  0  0  0  0  0  0  0  0  0  0
    7.0673   -0.4390   -0.0508 H   0  0  0  0  0  0  0  0  0  0  0  0
   -6.2619    0.8756    0.9236 H   0  0  0  0  0  0  0  0  0  0  0  0
   -6.3041    0.8819   -0.8505 H   0  0  0  0  0  0  0  0  0  0  0  0
   -7.0674   -0.4391    0.0506 H   0  0  0  0  0  0  0  0  0  0  0  0
  1  6  1  0  0  0  0
  1  7  1  0  0  0  0
  2  4  1  0  0  0  0
  2  6  1  0  0  0  0
  2 12  1  0  0  0  0
  2 13  1  0  0  0  0
  3  5  1  0  0  0  0
  3  7  1  0  0  0  0
  3 14  1  0  0  0  0
  3 15  1  0  0  0  0
  4  8  1  0  0  0  0
  4 16  1  0  0  0  0
  4 17  1  0  0  0  0
  5  9  1  0  0  0  0
  5 18  1  0  0  0  0
  5 19  1  0  0  0  0
  6 20  1  0  0  0  0
  6 21  1  0  0  0  0
  7 22  1  0  0  0  0
  7 23  1  0  0  0  0
  8 10  1  0  0  0  0
  8 24  1  0  0  0  0
  8 25  1  0  0  0  0
  9 11  1  0  0  0  0
  9 26  1  0  0  0  0
  9 27  1  0  0  0  0
 10 28  1  0  0  0  0
 10 29  1  0  0  0  0
 10 30  1  0  0  0  0
 11 31  1  0  0  0  0
 11 32  1  0  0  0  0
 11 33  1  0  0  0  0
M  END
> <PUBCHEM_COMPOUND_CID>
12743

> <PUBCHEM_CONFORMER_RMSD>
0.8

> <PUBCHEM_CONFORMER_DIVERSEORDER>
1
81
60
91
4
82
6
88
53
14
56
89
59
64
44
66
30
84
71
2
21
77
5
93
97
18
67
68
42
36
62
70
85
3
94
76
16
9
92
73
96
74
13
45
52
26
28
51
95
15
19
87
46
72
79
63
24
55
22
80
20
58
48
31
43
86
54
65
35
75
69
12
83
29
61
23
78
90
8
41
38
33
25
47
7
37
40
50
27
32
34
57
49
11
10
39
17

> <PUBCHEM_MMFF94_PARTIAL_CHARGES>
3
1 -0.56
6 0.28
7 0.28

> <PUBCHEM_EFFECTIVE_ROTOR_COUNT>
8

> <PUBCHEM_PHARMACOPHORE_FEATURES>
3
1 1 acceptor
1 10 hydrophobe
1 11 hydrophobe

> <PUBCHEM_HEAVY_ATOM_COUNT>
11

> <PUBCHEM_ATOM_DEF_STEREO_COUNT>
0

> <PUBCHEM_ATOM_UDEF_STEREO_COUNT>
0

> <PUBCHEM_BOND_DEF_STEREO_COUNT>
0

> <PUBCHEM_BOND_UDEF_STEREO_COUNT>
0

> <PUBCHEM_ISOTOPIC_ATOM_COUNT>
0

> <PUBCHEM_COMPONENT_COUNT>
1

> <PUBCHEM_CACTVS_TAUTO_COUNT>
1

> <PUBCHEM_CONFORMER_ID>
000031C700000001

> <PUBCHEM_MMFF94_ENERGY>
0.217

> <PUBCHEM_FEATURE_SELFOVERLAP>
15.223

> <PUBCHEM_SHAPE_FINGERPRINT>
12091667 2 18186238433862541925
12815109 37 18410855460128174791
14123238 8 18410292510180028246
1420 363 18186525401321890947
14251718 22 18040716973876349563
14251764 46 18410572889934823154
17834072 33 18341894129604931364
17834076 25 18410293609686368258
187816 3 15791450426729439269
20645477 70 18269838627723037582
20719005 15 18410573985156725888
20767249 13 18410575088958052707
23402539 116 17846492639246018389
23521765 1 18341895194640652645
366044 4 18187365436938215706
42788 4 18410573985151470629
4463277 17 18410573989446821189
8209 1 18410573985151464157

> <PUBCHEM_SHAPE_MULTIPOLES>
220.51
16.18
0.79
0.61
0
0.01
0
0.2
0
0
0
0
0
-0.01

> <PUBCHEM_SHAPE_SELFOVERLAP>
387.198

> <PUBCHEM_SHAPE_VOLUME>
145.9

> <PUBCHEM_COORDINATE_TYPE>
2
5
10

$$$$
