70255
  -OEChem-06182211403D

 12 12  0     0  0  0  0  0  0999 V2000
   -0.6791   -0.0441    0.0000 N   0  0  0  0  0  0  0  0  0  0  0  0
   -0.0199    1.1271    0.0001 N   0  0  0  0  0  0  0  0  0  0  0  0
    0.1380   -1.1363    0.0001 C   0  0  0  0  0  0  0  0  0  0  0  0
   -2.1223   -0.0544   -0.0001 C   0  0  0  0  0  0  0  0  0  0  0  0
    1.4208   -0.6456   -0.0001 C   0  0  0  0  0  0  0  0  0  0  0  0
    1.2625    0.7533    0.0000 C   0  0  0  0  0  0  0  0  0  0  0  0
   -0.2479   -2.1465    0.0003 H   0  0  0  0  0  0  0  0  0  0  0  0
   -2.4699    0.4612    0.8986 H   0  0  0  0  0  0  0  0  0  0  0  0
   -2.4698    0.4614   -0.8986 H   0  0  0  0  0  0  0  0  0  0  0  0
   -2.4803   -1.0868   -0.0002 H   0  0  0  0  0  0  0  0  0  0  0  0
    2.3365   -1.2181   -0.0002 H   0  0  0  0  0  0  0  0  0  0  0  0
    2.0281    1.5158    0.0000 H   0  0  0  0  0  0  0  0  0  0  0  0
  1  2  1  0  0  0  0
  1  3  1  0  0  0  0
  1  4  1  0  0  0  0
  2  6  2  0  0  0  0
  3  5  2  0  0  0  0
  3  7  1  0  0  0  0
  4  8  1  0  0  0  0
  4  9  1  0  0  0  0
  4 10  1  0  0  0  0
  5  6  1  0  0  0  0
  5 11  1  0  0  0  0
  6 12  1  0  0  0  0
M  END
> <PUBCHEM_COMPOUND_CID>
70255

> <PUBCHEM_CONFORMER_RMSD>
0.4

> <PUBCHEM_CONFORMER_DIVERSEORDER>
1

> <PUBCHEM_MMFF94_PARTIAL_CHARGES>
9
1 0.31
11 0.15
12 0.15
2 -0.71
3 -0.3
4 0.26
5 -0.15
6 0.14
7 0.15

> <PUBCHEM_EFFECTIVE_ROTOR_COUNT>
0

> <PUBCHEM_PHARMACOPHORE_FEATURES>
2
1 2 acceptor
5 1 2 3 5 6 rings

> <PUBCHEM_HEAVY_ATOM_COUNT>
6

> <PUBCHEM_ATOM_DEF_STEREO_COUNT>
0

> <PUBCHEM_ATOM_UDEF_STEREO_COUNT>
0

> <PUBCHEM_BOND_DEF_STEREO_COUNT>
0

> <PUBCHEM_BOND_UDEF_STEREO_COUNT>
0

> <PUBCHEM_ISOTOPIC_ATOM_COUNT>
0

> <PUBCHEM_COMPONENT_COUNT>
1

> <PUBCHEM_CACTVS_TAUTO_COUNT>
1

> <PUBCHEM_CONFORMER_ID>
0001126F00000001

> <PUBCHEM_MMFF94_ENERGY>
3.0596

> <PUBCHEM_FEATURE_SELFOVERLAP>
10.148

> <PUBCHEM_SHAPE_FINGERPRINT>
139733 1 9222931682463753731
20096714 4 18339644571658614473
21015797 1 9294126151468513770
21040471 1 18266458891617668772
29004967 10 18334581221944509475
5943 1 10358342717285123890

> <PUBCHEM_SHAPE_MULTIPOLES>
113.52
2.13
1.17
0.59
1
0.01
0
0.01
0
-0.26
0
-0.01
0.02
0

> <PUBCHEM_SHAPE_SELFOVERLAP>
227.863

> <PUBCHEM_SHAPE_VOLUME>
70

> <PUBCHEM_COORDINATE_TYPE>
2
5
10

$$$$
