16846
  -OEChem-06182211383D

 24 24  0     0  0  0  0  0  0999 V2000
    1.3171    0.1294    0.0031 O   0  0  0  0  0  0  0  0  0  0  0  0
    0.5985   -2.0575    0.0013 O   0  0  0  0  0  0  0  0  0  0  0  0
    3.5885    0.9115    0.0047 C   0  0  0  0  0  0  0  0  0  0  0  0
    2.6801   -0.3085    0.0035 C   0  0  0  0  0  0  0  0  0  0  0  0
    5.0560    0.5230   -0.0100 C   0  0  0  0  0  0  0  0  0  0  0  0
   -0.9827   -0.2729    0.0003 C   0  0  0  0  0  0  0  0  0  0  0  0
    0.3549   -0.8435    0.0020 C   0  0  0  0  0  0  0  0  0  0  0  0
   -2.0982   -1.1105   -0.0021 C   0  0  0  0  0  0  0  0  0  0  0  0
   -1.1504    1.1119    0.0019 C   0  0  0  0  0  0  0  0  0  0  0  0
   -3.3812   -0.5633   -0.0035 C   0  0  0  0  0  0  0  0  0  0  0  0
   -2.4335    1.6589    0.0007 C   0  0  0  0  0  0  0  0  0  0  0  0
   -3.5490    0.8213   -0.0019 C   0  0  0  0  0  0  0  0  0  0  0  0
    3.3611    1.5400   -0.8646 H   0  0  0  0  0  0  0  0  0  0  0  0
    3.3745    1.5281    0.8859 H   0  0  0  0  0  0  0  0  0  0  0  0
    2.8626   -0.9153   -0.8909 H   0  0  0  0  0  0  0  0  0  0  0  0
    2.8626   -0.9173    0.8965 H   0  0  0  0  0  0  0  0  0  0  0  0
    5.2984   -0.0607   -0.9038 H   0  0  0  0  0  0  0  0  0  0  0  0
    5.6854    1.4184   -0.0082 H   0  0  0  0  0  0  0  0  0  0  0  0
    5.3125   -0.0742    0.8708 H   0  0  0  0  0  0  0  0  0  0  0  0
   -1.9899   -2.1920   -0.0032 H   0  0  0  0  0  0  0  0  0  0  0  0
   -0.3118    1.8025    0.0041 H   0  0  0  0  0  0  0  0  0  0  0  0
   -4.2499   -1.2152   -0.0055 H   0  0  0  0  0  0  0  0  0  0  0  0
   -2.5650    2.7371    0.0019 H   0  0  0  0  0  0  0  0  0  0  0  0
   -4.5479    1.2473   -0.0028 H   0  0  0  0  0  0  0  0  0  0  0  0
  1  4  1  0  0  0  0
  1  7  1  0  0  0  0
  2  7  2  0  0  0  0
  3  4  1  0  0  0  0
  3  5  1  0  0  0  0
  3 13  1  0  0  0  0
  3 14  1  0  0  0  0
  4 15  1  0  0  0  0
  4 16  1  0  0  0  0
  5 17  1  0  0  0  0
  5 18  1  0  0  0  0
  5 19  1  0  0  0  0
  6  7  1  0  0  0  0
  6  8  2  0  0  0  0
  6  9  1  0  0  0  0
  8 10  1  0  0  0  0
  8 20  1  0  0  0  0
  9 11  2  0  0  0  0
  9 21  1  0  0  0  0
 10 12  2  0  0  0  0
 10 22  1  0  0  0  0
 11 12  1  0  0  0  0
 11 23  1  0  0  0  0
 12 24  1  0  0  0  0
M  END
> <PUBCHEM_COMPOUND_CID>
16846

> <PUBCHEM_CONFORMER_RMSD>
0.6

> <PUBCHEM_CONFORMER_DIVERSEORDER>
1
22
6
26
24
8
4
21
7
23
27
10
18
15
13
11
14
12
19
20
9
5
16
25
17
3
2

> <PUBCHEM_MMFF94_PARTIAL_CHARGES>
15
1 -0.43
10 -0.15
11 -0.15
12 -0.15
2 -0.57
20 0.15
21 0.15
22 0.15
23 0.15
24 0.15
4 0.28
6 0.09
7 0.63
8 -0.15
9 -0.15

> <PUBCHEM_EFFECTIVE_ROTOR_COUNT>
4

> <PUBCHEM_PHARMACOPHORE_FEATURES>
3
1 2 acceptor
1 5 hydrophobe
6 6 8 9 10 11 12 rings

> <PUBCHEM_HEAVY_ATOM_COUNT>
12

> <PUBCHEM_ATOM_DEF_STEREO_COUNT>
0

> <PUBCHEM_ATOM_UDEF_STEREO_COUNT>
0

> <PUBCHEM_BOND_DEF_STEREO_COUNT>
0

> <PUBCHEM_BOND_UDEF_STEREO_COUNT>
0

> <PUBCHEM_ISOTOPIC_ATOM_COUNT>
0

> <PUBCHEM_COMPONENT_COUNT>
1

> <PUBCHEM_CACTVS_TAUTO_COUNT>
1

> <PUBCHEM_CONFORMER_ID>
000041CE00000001

> <PUBCHEM_MMFF94_ENERGY>
25.0207

> <PUBCHEM_FEATURE_SELFOVERLAP>
15.223

> <PUBCHEM_SHAPE_FINGERPRINT>
10608611 8 18338233743647910949
11132069 177 18334576836714542772
12346645 44 18409448063875423082
12932764 1 17346303899832203342
13214271 11 18335702758576035871
13380535 76 18408604747026014291
14325111 11 18410573968235371522
14897335 6 18410007698045520087
15219456 202 18201446830757285742
15775835 57 18409167697153223128
18186145 218 18059869337335772032
20300324 65 18202280337864570885
20645477 70 17203338758597128526
21501502 16 18267860588844802091
21524375 3 18409166614969215962
22485316 2 9655580695227179052
23402539 116 18343012324651597100
23402655 69 18198892640220067389
366044 4 18410011057100459106
6333449 129 18413386544886156917
7364860 26 18197216936584990998

> <PUBCHEM_SHAPE_MULTIPOLES>
235.22
7.94
1.58
0.6
8.66
0.18
0
-2.46
0.02
-0.66
0
-0.02
-0.02
0

> <PUBCHEM_SHAPE_SELFOVERLAP>
477.407

> <PUBCHEM_SHAPE_VOLUME>
137.6

> <PUBCHEM_COORDINATE_TYPE>
2
5
10

$$$$
