23313
  -OEChem-06182211343D

 24 24  0     1  0  0  0  0  0999 V2000
    0.6502    0.7188   -0.2882 C   0  0  1  0  0  0  0  0  0  0  0  0
    0.6502   -0.7189    0.2882 C   0  0  1  0  0  0  0  0  0  0  0  0
   -0.6314    1.4678    0.1162 C   0  0  0  0  0  0  0  0  0  0  0  0
   -0.6315   -1.4678   -0.1158 C   0  0  0  0  0  0  0  0  0  0  0  0
   -1.8903    0.7064   -0.2846 C   0  0  0  0  0  0  0  0  0  0  0  0
   -1.8904   -0.7062    0.2843 C   0  0  0  0  0  0  0  0  0  0  0  0
    1.8717    1.5289    0.1555 C   0  0  0  0  0  0  0  0  0  0  0  0
    1.8714   -1.5290   -0.1556 C   0  0  0  0  0  0  0  0  0  0  0  0
    0.6730    0.6562   -1.3850 H   0  0  0  0  0  0  0  0  0  0  0  0
    0.6732   -0.6562    1.3850 H   0  0  0  0  0  0  0  0  0  0  0  0
   -0.6489    2.4585   -0.3540 H   0  0  0  0  0  0  0  0  0  0  0  0
   -0.6388    1.6321    1.2015 H   0  0  0  0  0  0  0  0  0  0  0  0
   -0.6492   -2.4584    0.3547 H   0  0  0  0  0  0  0  0  0  0  0  0
   -0.6389   -1.6328   -1.2010 H   0  0  0  0  0  0  0  0  0  0  0  0
   -1.9585    0.6618   -1.3785 H   0  0  0  0  0  0  0  0  0  0  0  0
   -2.7759    1.2463    0.0690 H   0  0  0  0  0  0  0  0  0  0  0  0
   -1.9591   -0.6615    1.3782 H   0  0  0  0  0  0  0  0  0  0  0  0
   -2.7759   -1.2461   -0.0695 H   0  0  0  0  0  0  0  0  0  0  0  0
    1.9536    1.5575    1.2472 H   0  0  0  0  0  0  0  0  0  0  0  0
    2.7979    1.1079   -0.2468 H   0  0  0  0  0  0  0  0  0  0  0  0
    1.8050    2.5611   -0.2054 H   0  0  0  0  0  0  0  0  0  0  0  0
    2.7977   -1.1080    0.2465 H   0  0  0  0  0  0  0  0  0  0  0  0
    1.8047   -2.5612    0.2054 H   0  0  0  0  0  0  0  0  0  0  0  0
    1.9531   -1.5578   -1.2473 H   0  0  0  0  0  0  0  0  0  0  0  0
  1  2  1  0  0  0  0
  1  3  1  0  0  0  0
  1  7  1  0  0  0  0
  1  9  1  0  0  0  0
  2  4  1  0  0  0  0
  2  8  1  0  0  0  0
  2 10  1  0  0  0  0
  3  5  1  0  0  0  0
  3 11  1  0  0  0  0
  3 12  1  0  0  0  0
  4  6  1  0  0  0  0
  4 13  1  0  0  0  0
  4 14  1  0  0  0  0
  5  6  1  0  0  0  0
  5 15  1  0  0  0  0
  5 16  1  0  0  0  0
  6 17  1  0  0  0  0
  6 18  1  0  0  0  0
  7 19  1  0  0  0  0
  7 20  1  0  0  0  0
  7 21  1  0  0  0  0
  8 22  1  0  0  0  0
  8 23  1  0  0  0  0
  8 24  1  0  0  0  0
M  END
> <PUBCHEM_COMPOUND_CID>
23313

> <PUBCHEM_CONFORMER_RMSD>
0.4

> <PUBCHEM_CONFORMER_DIVERSEORDER>
2
1
3

> <PUBCHEM_MMFF94_PARTIAL_CHARGES>
0

> <PUBCHEM_EFFECTIVE_ROTOR_COUNT>
1.2

> <PUBCHEM_PHARMACOPHORE_FEATURES>
1
6 1 2 3 4 5 6 rings

> <PUBCHEM_HEAVY_ATOM_COUNT>
8

> <PUBCHEM_ATOM_DEF_STEREO_COUNT>
2

> <PUBCHEM_ATOM_UDEF_STEREO_COUNT>
0

> <PUBCHEM_BOND_DEF_STEREO_COUNT>
0

> <PUBCHEM_BOND_UDEF_STEREO_COUNT>
0

> <PUBCHEM_ISOTOPIC_ATOM_COUNT>
0

> <PUBCHEM_COMPONENT_COUNT>
1

> <PUBCHEM_CACTVS_TAUTO_COUNT>
1

> <PUBCHEM_CONFORMER_ID>
00005B1100000002

> <PUBCHEM_MMFF94_ENERGY>
6.2046

> <PUBCHEM_FEATURE_SELFOVERLAP>
5.074

> <PUBCHEM_SHAPE_FINGERPRINT>
16714656 1 17834117446343080230
18185500 45 18123750021969029887
21040471 1 18337673138746581213
23552423 10 18260833712926160998
241688 4 18263364694066916425
2748010 2 18409166610500006597
29004967 10 18117003380034745761
5084963 1 18058721391103440251
66348 1 18265895748374875412

> <PUBCHEM_SHAPE_MULTIPOLES>
164.64
2.59
1.99
0.67
0.04
0
0
0
0
-0.6
0
0.02
0
0.15

> <PUBCHEM_SHAPE_SELFOVERLAP>
312.117

> <PUBCHEM_SHAPE_VOLUME>
101.7

> <PUBCHEM_COORDINATE_TYPE>
2
5
10

$$$$
