101194
  -OEChem-12272211083D

 19 19  0     1  0  0  0  0  0999 V2000
   -2.2603   -0.1677    0.3489 O   0  0  0  0  0  0  0  0  0  0  0  0
   -0.1386    0.6937   -0.2010 N   0  0  0  0  0  0  0  0  0  0  0  0
    1.2086    0.1757   -0.3595 C   0  0  2  0  0  0  0  0  0  0  0  0
    0.9577   -1.3054   -0.6234 C   0  0  0  0  0  0  0  0  0  0  0  0
   -0.3241   -1.6101    0.1454 C   0  0  0  0  0  0  0  0  0  0  0  0
   -1.0691   -0.2971    0.1091 C   0  0  0  0  0  0  0  0  0  0  0  0
    2.0594    0.4028    0.8856 C   0  0  0  0  0  0  0  0  0  0  0  0
   -0.4336    2.1081   -0.3050 C   0  0  0  0  0  0  0  0  0  0  0  0
    1.6804    0.6459   -1.2295 H   0  0  0  0  0  0  0  0  0  0  0  0
    1.7896   -1.9542   -0.3336 H   0  0  0  0  0  0  0  0  0  0  0  0
    0.7744   -1.4591   -1.6949 H   0  0  0  0  0  0  0  0  0  0  0  0
   -0.1178   -1.8721    1.1877 H   0  0  0  0  0  0  0  0  0  0  0  0
   -0.9046   -2.4028   -0.3327 H   0  0  0  0  0  0  0  0  0  0  0  0
    2.2017    1.4731    1.0684 H   0  0  0  0  0  0  0  0  0  0  0  0
    1.5932   -0.0225    1.7811 H   0  0  0  0  0  0  0  0  0  0  0  0
    3.0481   -0.0520    0.7665 H   0  0  0  0  0  0  0  0  0  0  0  0
    0.1020    2.6436    0.4828 H   0  0  0  0  0  0  0  0  0  0  0  0
   -1.5069    2.2810   -0.1925 H   0  0  0  0  0  0  0  0  0  0  0  0
   -0.1068    2.4662   -1.2847 H   0  0  0  0  0  0  0  0  0  0  0  0
  1  6  2  0  0  0  0
  2  3  1  0  0  0  0
  2  6  1  0  0  0  0
  2  8  1  0  0  0  0
  3  4  1  0  0  0  0
  3  7  1  0  0  0  0
  3  9  1  0  0  0  0
  4  5  1  0  0  0  0
  4 10  1  0  0  0  0
  4 11  1  0  0  0  0
  5  6  1  0  0  0  0
  5 12  1  0  0  0  0
  5 13  1  0  0  0  0
  7 14  1  0  0  0  0
  7 15  1  0  0  0  0
  7 16  1  0  0  0  0
  8 17  1  0  0  0  0
  8 18  1  0  0  0  0
  8 19  1  0  0  0  0
M  END
> <PUBCHEM_COMPOUND_CID>
101194

> <PUBCHEM_CONFORMER_RMSD>
0.4

> <PUBCHEM_CONFORMER_DIVERSEORDER>
1
2

> <PUBCHEM_MMFF94_PARTIAL_CHARGES>
6
1 -0.57
2 -0.66
3 0.3
5 0.06
6 0.57
8 0.3

> <PUBCHEM_EFFECTIVE_ROTOR_COUNT>
0.8

> <PUBCHEM_PHARMACOPHORE_FEATURES>
2
1 1 acceptor
5 2 3 4 5 6 rings

> <PUBCHEM_HEAVY_ATOM_COUNT>
8

> <PUBCHEM_ATOM_DEF_STEREO_COUNT>
0

> <PUBCHEM_ATOM_UDEF_STEREO_COUNT>
1

> <PUBCHEM_BOND_DEF_STEREO_COUNT>
0

> <PUBCHEM_BOND_UDEF_STEREO_COUNT>
0

> <PUBCHEM_ISOTOPIC_ATOM_COUNT>
0

> <PUBCHEM_COMPONENT_COUNT>
1

> <PUBCHEM_CACTVS_TAUTO_COUNT>
2

> <PUBCHEM_CONFORMER_ID>
00018B4A00000001

> <PUBCHEM_MMFF94_ENERGY>
10.4409

> <PUBCHEM_FEATURE_SELFOVERLAP>
10.148

> <PUBCHEM_SHAPE_FINGERPRINT>
137420 1 12077088449074329696
16714656 1 18338525239136556228
18185500 45 16035484098861599414
21040471 1 18340215179544122783
29004967 10 18335995228320897227

> <PUBCHEM_SHAPE_MULTIPOLES>
153.79
2.16
1.85
0.8
0.06
0.45
-0.04
0.06
-0.54
0.23
0.24
-0.24
0
0.29

> <PUBCHEM_SHAPE_SELFOVERLAP>
302.009

> <PUBCHEM_SHAPE_VOLUME>
95.4

> <PUBCHEM_COORDINATE_TYPE>
2
5
10

$$$$
