20528
  -OEChem-06212212593D

 33 35  0     0  0  0  0  0  0999 V2000
    0.5217    1.8794    0.1532 O   0  0  0  0  0  0  0  0  0  0  0  0
   -2.5679   -2.4710   -0.1375 O   0  0  0  0  0  0  0  0  0  0  0  0
    4.4832    2.4540   -0.8156 O   0  0  0  0  0  0  0  0  0  0  0  0
    2.7154    0.4648    0.1639 N   0  0  0  0  0  0  0  0  0  0  0  0
    0.4337   -0.4867    0.0456 C   0  0  0  0  0  0  0  0  0  0  0  0
   -0.3822   -1.6174   -0.0318 C   0  0  0  0  0  0  0  0  0  0  0  0
    1.8258   -0.6313    0.0845 C   0  0  0  0  0  0  0  0  0  0  0  0
   -1.6310    1.0031    0.0466 C   0  0  0  0  0  0  0  0  0  0  0  0
   -2.4469   -0.1276   -0.0306 C   0  0  0  0  0  0  0  0  0  0  0  0
   -0.1608    0.8648    0.0874 C   0  0  0  0  0  0  0  0  0  0  0  0
   -1.8522   -1.4792   -0.0721 C   0  0  0  0  0  0  0  0  0  0  0  0
    0.1941   -2.8928   -0.0709 C   0  0  0  0  0  0  0  0  0  0  0  0
    2.3957   -1.9043    0.0457 C   0  0  0  0  0  0  0  0  0  0  0  0
    1.5817   -3.0325   -0.0318 C   0  0  0  0  0  0  0  0  0  0  0  0
   -2.2072    2.2785    0.0859 C   0  0  0  0  0  0  0  0  0  0  0  0
   -3.8389    0.0171   -0.0688 C   0  0  0  0  0  0  0  0  0  0  0  0
    4.1344    0.3074    0.2041 C   0  0  0  0  0  0  0  0  0  0  0  0
   -3.5948    2.4182    0.0481 C   0  0  0  0  0  0  0  0  0  0  0  0
   -4.4089    1.2899   -0.0293 C   0  0  0  0  0  0  0  0  0  0  0  0
    4.8049    1.6655    0.3233 C   0  0  0  0  0  0  0  0  0  0  0  0
   -0.4188   -3.7882   -0.1313 H   0  0  0  0  0  0  0  0  0  0  0  0
    2.3219    1.3976    0.1761 H   0  0  0  0  0  0  0  0  0  0  0  0
    3.4666   -2.0792    0.0710 H   0  0  0  0  0  0  0  0  0  0  0  0
    2.0271   -4.0228   -0.0624 H   0  0  0  0  0  0  0  0  0  0  0  0
   -1.5965    3.1754    0.1460 H   0  0  0  0  0  0  0  0  0  0  0  0
    4.4857   -0.1716   -0.7178 H   0  0  0  0  0  0  0  0  0  0  0  0
    4.4405   -0.2981    1.0650 H   0  0  0  0  0  0  0  0  0  0  0  0
   -4.4954   -0.8467   -0.1289 H   0  0  0  0  0  0  0  0  0  0  0  0
   -4.0412    3.4079    0.0789 H   0  0  0  0  0  0  0  0  0  0  0  0
   -5.4889    1.4014   -0.0588 H   0  0  0  0  0  0  0  0  0  0  0  0
    5.8922    1.5504    0.3701 H   0  0  0  0  0  0  0  0  0  0  0  0
    4.4654    2.1965    1.2191 H   0  0  0  0  0  0  0  0  0  0  0  0
    4.9315    3.3099   -0.7053 H   0  0  0  0  0  0  0  0  0  0  0  0
  1 10  2  0  0  0  0
  2 11  2  0  0  0  0
  3 20  1  0  0  0  0
  3 33  1  0  0  0  0
  4  7  1  0  0  0  0
  4 17  1  0  0  0  0
  4 22  1  0  0  0  0
  5  6  2  0  0  0  0
  5  7  1  0  0  0  0
  5 10  1  0  0  0  0
  6 11  1  0  0  0  0
  6 12  1  0  0  0  0
  7 13  2  0  0  0  0
  8  9  1  0  0  0  0
  8 10  1  0  0  0  0
  8 15  2  0  0  0  0
  9 11  1  0  0  0  0
  9 16  2  0  0  0  0
 12 14  2  0  0  0  0
 12 21  1  0  0  0  0
 13 14  1  0  0  0  0
 13 23  1  0  0  0  0
 14 24  1  0  0  0  0
 15 18  1  0  0  0  0
 15 25  1  0  0  0  0
 16 19  1  0  0  0  0
 16 28  1  0  0  0  0
 17 20  1  0  0  0  0
 17 26  1  0  0  0  0
 17 27  1  0  0  0  0
 18 19  2  0  0  0  0
 18 29  1  0  0  0  0
 19 30  1  0  0  0  0
 20 31  1  0  0  0  0
 20 32  1  0  0  0  0
M  END
> <PUBCHEM_COMPOUND_CID>
20528

> <PUBCHEM_CONFORMER_RMSD>
0.6

> <PUBCHEM_CONFORMER_DIVERSEORDER>
1
3
2

> <PUBCHEM_MMFF94_PARTIAL_CHARGES>
29
1 -0.57
10 0.4
11 0.4
12 -0.15
13 -0.15
14 -0.15
15 -0.15
16 -0.15
17 0.37
18 -0.15
19 -0.15
2 -0.57
20 0.28
21 0.15
22 0.4
23 0.15
24 0.15
25 0.15
28 0.15
29 0.15
3 -0.68
30 0.15
33 0.4
4 -0.87
5 0.09
6 0.09
7 0.1
8 0.09
9 0.09

> <PUBCHEM_EFFECTIVE_ROTOR_COUNT>
3

> <PUBCHEM_PHARMACOPHORE_FEATURES>
9
1 1 acceptor
1 2 acceptor
1 3 acceptor
1 3 donor
1 4 cation
1 4 donor
6 5 6 7 12 13 14 rings
6 5 6 8 9 10 11 rings
6 8 9 15 16 18 19 rings

> <PUBCHEM_HEAVY_ATOM_COUNT>
20

> <PUBCHEM_ATOM_DEF_STEREO_COUNT>
0

> <PUBCHEM_ATOM_UDEF_STEREO_COUNT>
0

> <PUBCHEM_BOND_DEF_STEREO_COUNT>
0

> <PUBCHEM_BOND_UDEF_STEREO_COUNT>
0

> <PUBCHEM_ISOTOPIC_ATOM_COUNT>
0

> <PUBCHEM_COMPONENT_COUNT>
1

> <PUBCHEM_CACTVS_TAUTO_COUNT>
4

> <PUBCHEM_CONFORMER_ID>
0000503000000001

> <PUBCHEM_MMFF94_ENERGY>
68.5398

> <PUBCHEM_FEATURE_SELFOVERLAP>
45.716

> <PUBCHEM_SHAPE_FINGERPRINT>
10319926 262 18055049195004721904
10411042 1 17329990712648268866
10493431 412 18411703196684171233
10498660 4 18411139155851027412
10608611 8 18193555558685008909
10616163 171 18410855481634932627
10948715 1 18410292484468493650
10967382 1 18339359652344998771
12173636 292 18339636854019329668
12390115 104 18270417082281284208
13140716 1 18123194760423611777
13583140 156 16879050963315738848
138480 1 17762618387132686394
14787075 74 18272646878908803641
14790565 3 18410863195423167696
15196674 1 18339359648398061155
15536298 74 18198621034207692983
16087824 20 18340764941156815503
16945 1 18411417306797422355
19591789 44 17978794832832059033
20510252 161 18270967971876497450
21267235 1 18124321506465891775
21501502 16 18340476768986049547
221490 88 18194409887752248987
22182313 1 18268733708383256646
23227448 37 18411136969522977796
2334 1 17978789344185647003
23366157 5 18115590318847146674
23463225 33 18050285860807426843
23559900 14 18271807870475880926
2748010 2 18122345666843124631
335352 9 17907296555057806559
34934 24 18411694379258483871
350125 39 18050289167668474672
394222 165 18261106344860823490
474 4 18334296444285777488
5104073 3 18264212400979784713
58051976 378 18412823590469138860
6034566 193 18191894381136386360
633830 44 17985828116973917797
7064713 232 18336822082994053980
7364860 26 18197497316540031534
7808743 9 18266176322142190320
9709674 26 18268432330623041815
9981440 41 18335979861107637602

> <PUBCHEM_SHAPE_MULTIPOLES>
389
8.08
3.51
0.64
2.85
1.07
0.01
-6.34
0.14
1.19
0.21
0.13
-0.08
-0.3

> <PUBCHEM_SHAPE_SELFOVERLAP>
862.963

> <PUBCHEM_SHAPE_VOLUME>
206.6

> <PUBCHEM_COORDINATE_TYPE>
2
5
10

$$$$
