222536
  -OEChem-06212212553D

 20 19  0     0  0  0  0  0  0999 V2000
    1.3918   -0.7503    0.2221 O   0  0  0  0  0  0  0  0  0  0  0  0
   -0.7447    0.2853    0.3277 O   0  0  0  0  0  0  0  0  0  0  0  0
    1.7081    1.3075   -0.7799 O   0  0  0  0  0  0  0  0  0  0  0  0
   -2.6718   -0.4133   -0.7407 O   0  0  0  0  0  0  0  0  0  0  0  0
    0.0243   -0.7950   -0.2369 C   0  0  0  0  0  0  0  0  0  0  0  0
   -0.5612   -2.1188    0.2337 C   0  0  0  0  0  0  0  0  0  0  0  0
    2.1095    0.3564   -0.1232 C   0  0  0  0  0  0  0  0  0  0  0  0
   -2.0647    0.3534   -0.0056 C   0  0  0  0  0  0  0  0  0  0  0  0
    3.4991    0.2428    0.4265 C   0  0  0  0  0  0  0  0  0  0  0  0
   -2.6905    1.5321    0.6761 C   0  0  0  0  0  0  0  0  0  0  0  0
    0.0169   -0.7335   -1.3323 H   0  0  0  0  0  0  0  0  0  0  0  0
    0.1261   -2.9416    0.0067 H   0  0  0  0  0  0  0  0  0  0  0  0
   -1.5215   -2.3606   -0.2257 H   0  0  0  0  0  0  0  0  0  0  0  0
   -0.7073   -2.1113    1.3200 H   0  0  0  0  0  0  0  0  0  0  0  0
    3.4623    0.1752    1.5167 H   0  0  0  0  0  0  0  0  0  0  0  0
    3.9951   -0.6338    0.0024 H   0  0  0  0  0  0  0  0  0  0  0  0
    4.0714    1.1337    0.1523 H   0  0  0  0  0  0  0  0  0  0  0  0
   -2.6187    1.4146    1.7602 H   0  0  0  0  0  0  0  0  0  0  0  0
   -2.1961    2.4522    0.3545 H   0  0  0  0  0  0  0  0  0  0  0  0
   -3.7475    1.5911    0.4010 H   0  0  0  0  0  0  0  0  0  0  0  0
  1  5  1  0  0  0  0
  1  7  1  0  0  0  0
  2  5  1  0  0  0  0
  2  8  1  0  0  0  0
  3  7  2  0  0  0  0
  4  8  2  0  0  0  0
  5  6  1  0  0  0  0
  5 11  1  0  0  0  0
  6 12  1  0  0  0  0
  6 13  1  0  0  0  0
  6 14  1  0  0  0  0
  7  9  1  0  0  0  0
  8 10  1  0  0  0  0
  9 15  1  0  0  0  0
  9 16  1  0  0  0  0
  9 17  1  0  0  0  0
 10 18  1  0  0  0  0
 10 19  1  0  0  0  0
 10 20  1  0  0  0  0
M  END
> <PUBCHEM_COMPOUND_CID>
222536

> <PUBCHEM_CONFORMER_RMSD>
0.6

> <PUBCHEM_CONFORMER_DIVERSEORDER>
1
3
11
13
2
20
6
17
16
10
19
12
8
21
5
9
18
7
14
4
15

> <PUBCHEM_MMFF94_PARTIAL_CHARGES>
9
1 -0.43
10 0.06
2 -0.43
3 -0.57
4 -0.57
5 0.56
7 0.66
8 0.66
9 0.06

> <PUBCHEM_EFFECTIVE_ROTOR_COUNT>
4

> <PUBCHEM_PHARMACOPHORE_FEATURES>
2
1 3 acceptor
1 4 acceptor

> <PUBCHEM_HEAVY_ATOM_COUNT>
10

> <PUBCHEM_ATOM_DEF_STEREO_COUNT>
0

> <PUBCHEM_ATOM_UDEF_STEREO_COUNT>
0

> <PUBCHEM_BOND_DEF_STEREO_COUNT>
0

> <PUBCHEM_BOND_UDEF_STEREO_COUNT>
0

> <PUBCHEM_ISOTOPIC_ATOM_COUNT>
0

> <PUBCHEM_COMPONENT_COUNT>
1

> <PUBCHEM_CACTVS_TAUTO_COUNT>
1

> <PUBCHEM_CONFORMER_ID>
0003654800000001

> <PUBCHEM_MMFF94_ENERGY>
11.6856

> <PUBCHEM_FEATURE_SELFOVERLAP>
10.149

> <PUBCHEM_SHAPE_FINGERPRINT>
100427 49 17115795968725787883
12897270 3 11167940260224981536
12932764 1 16660646271281577658
14325111 11 18413388713591446810
14390081 3 18202281377246779993
15775835 57 18200877279407572825
20653085 51 18059590060891778098
207724 885 18113614582361330930
21028194 46 18344149193530367042
21040471 1 18411423920677721618
23235685 24 18411416198326490936
23402539 116 18200299030928180503
23552423 10 18197778791574751591
305870 269 18264769857031684755
5084963 1 18411410709231601677

> <PUBCHEM_SHAPE_MULTIPOLES>
182.32
4.81
1.66
0.77
1.48
0.57
0.02
-1.96
-0.38
-0.66
-0.15
-0.07
-0.09
-0.45

> <PUBCHEM_SHAPE_SELFOVERLAP>
343.319

> <PUBCHEM_SHAPE_VOLUME>
112.4

> <PUBCHEM_COORDINATE_TYPE>
2
5
10

$$$$
