6710
  -OEChem-06212212553D

 26 28  0     0  0  0  0  0  0999 V2000
    0.1140    2.5108    0.0001 O   0  0  0  0  0  0  0  0  0  0  0  0
   -0.4883   -2.7990    0.0009 O   0  0  0  0  0  0  0  0  0  0  0  0
    2.7180    2.3333    0.0004 N   0  0  0  0  0  0  0  0  0  0  0  0
    1.1803    0.3942   -0.0004 C   0  0  0  0  0  0  0  0  0  0  0  0
    1.0125   -0.9922   -0.0006 C   0  0  0  0  0  0  0  0  0  0  0  0
   -1.3473    0.7000   -0.0005 C   0  0  0  0  0  0  0  0  0  0  0  0
   -1.5151   -0.6863   -0.0004 C   0  0  0  0  0  0  0  0  0  0  0  0
    0.0065    1.2910   -0.0006 C   0  0  0  0  0  0  0  0  0  0  0  0
   -0.3413   -1.5831   -0.0004 C   0  0  0  0  0  0  0  0  0  0  0  0
    2.4689    0.9415    0.0003 C   0  0  0  0  0  0  0  0  0  0  0  0
    2.1334   -1.8311   -0.0005 C   0  0  0  0  0  0  0  0  0  0  0  0
   -2.4682    1.5390   -0.0001 C   0  0  0  0  0  0  0  0  0  0  0  0
   -2.8037   -1.2337    0.0000 C   0  0  0  0  0  0  0  0  0  0  0  0
    3.5831    0.1018    0.0006 C   0  0  0  0  0  0  0  0  0  0  0  0
    3.4156   -1.2816    0.0002 C   0  0  0  0  0  0  0  0  0  0  0  0
   -3.7505    0.9894    0.0005 C   0  0  0  0  0  0  0  0  0  0  0  0
   -3.9179   -0.3941    0.0005 C   0  0  0  0  0  0  0  0  0  0  0  0
    2.0296   -2.9129   -0.0007 H   0  0  0  0  0  0  0  0  0  0  0  0
   -2.3671    2.6210   -0.0001 H   0  0  0  0  0  0  0  0  0  0  0  0
   -2.9609   -2.3090    0.0001 H   0  0  0  0  0  0  0  0  0  0  0  0
    4.5907    0.5106    0.0011 H   0  0  0  0  0  0  0  0  0  0  0  0
    4.2847   -1.9333    0.0004 H   0  0  0  0  0  0  0  0  0  0  0  0
   -4.6197    1.6408    0.0009 H   0  0  0  0  0  0  0  0  0  0  0  0
   -4.9173   -0.8194    0.0010 H   0  0  0  0  0  0  0  0  0  0  0  0
    3.6703    2.6748    0.0014 H   0  0  0  0  0  0  0  0  0  0  0  0
    1.9556    2.9956    0.0009 H   0  0  0  0  0  0  0  0  0  0  0  0
  1  8  2  0  0  0  0
  2  9  2  0  0  0  0
  3 10  1  0  0  0  0
  3 25  1  0  0  0  0
  3 26  1  0  0  0  0
  4  5  2  0  0  0  0
  4  8  1  0  0  0  0
  4 10  1  0  0  0  0
  5  9  1  0  0  0  0
  5 11  1  0  0  0  0
  6  7  1  0  0  0  0
  6  8  1  0  0  0  0
  6 12  2  0  0  0  0
  7  9  1  0  0  0  0
  7 13  2  0  0  0  0
 10 14  2  0  0  0  0
 11 15  2  0  0  0  0
 11 18  1  0  0  0  0
 12 16  1  0  0  0  0
 12 19  1  0  0  0  0
 13 17  1  0  0  0  0
 13 20  1  0  0  0  0
 14 15  1  0  0  0  0
 14 21  1  0  0  0  0
 15 22  1  0  0  0  0
 16 17  2  0  0  0  0
 16 23  1  0  0  0  0
 17 24  1  0  0  0  0
M  END
> <PUBCHEM_COMPOUND_CID>
6710

> <PUBCHEM_CONFORMER_RMSD>
0.4

> <PUBCHEM_CONFORMER_DIVERSEORDER>
1

> <PUBCHEM_MMFF94_PARTIAL_CHARGES>
26
1 -0.57
10 0.1
11 -0.15
12 -0.15
13 -0.15
14 -0.15
15 -0.15
16 -0.15
17 -0.15
18 0.15
19 0.15
2 -0.57
20 0.15
21 0.15
22 0.15
23 0.15
24 0.15
25 0.4
26 0.4
3 -0.9
4 0.09
5 0.09
6 0.09
7 0.09
8 0.4
9 0.4

> <PUBCHEM_EFFECTIVE_ROTOR_COUNT>
0

> <PUBCHEM_PHARMACOPHORE_FEATURES>
7
1 1 acceptor
1 2 acceptor
1 3 cation
1 3 donor
6 4 5 10 11 14 15 rings
6 4 5 6 7 8 9 rings
6 6 7 12 13 16 17 rings

> <PUBCHEM_HEAVY_ATOM_COUNT>
17

> <PUBCHEM_ATOM_DEF_STEREO_COUNT>
0

> <PUBCHEM_ATOM_UDEF_STEREO_COUNT>
0

> <PUBCHEM_BOND_DEF_STEREO_COUNT>
0

> <PUBCHEM_BOND_UDEF_STEREO_COUNT>
0

> <PUBCHEM_ISOTOPIC_ATOM_COUNT>
0

> <PUBCHEM_COMPONENT_COUNT>
1

> <PUBCHEM_CACTVS_TAUTO_COUNT>
4

> <PUBCHEM_CONFORMER_ID>
00001A3600000001

> <PUBCHEM_MMFF94_ENERGY>
64.3961

> <PUBCHEM_FEATURE_SELFOVERLAP>
35.562

> <PUBCHEM_SHAPE_FINGERPRINT>
10411042 1 15456494805786974281
10608611 8 18409445882063821589
10967382 1 18410574023821987558
10980938 120 18410293639904146178
11132069 177 18412256212187988563
11471102 20 18410288077779060182
11680986 33 18264494055722615875
12032990 46 18410579461351012459
13140716 1 18338518543055701721
13221675 6 18410292480136544558
13380535 76 18411698807127367806
13897977 150 18410571764827575397
14144814 61 18410573980877595987
14178342 30 17979339078398000968
15196674 1 18410573972277118247
15309172 13 18411708685879014587
15442244 35 18267304240071219080
15536298 74 18343301466023572464
16945 1 18194401327607582150
18186145 218 18342181024735320037
193761 8 17978229683665426023
19591789 44 18410294713651790547
200 152 18131058330368155693
20510252 161 18272651212272414392
20645477 70 18412258407417573343
21267235 1 18411146822220204391
21501502 16 18339640147837037942
221490 88 18336554892619322154
2334 1 18410856576935716293
23402539 116 18271232855320989374
23463225 33 18409166580208408044
23559900 14 18343018862045540834
2748010 2 18410292493063462703
335352 9 17978510836498445455
5104073 3 18410293605428331713
528886 8 18411695452710183723
53812653 166 18342735243057340400
69090 78 18341889705931242615
7364860 26 18342175587823869792
84936 31 15983699905696413638
8809292 202 18261117352529634667
9709674 26 18411986883447953870

> <PUBCHEM_SHAPE_MULTIPOLES>
333.13
6.22
2.54
0.6
1.19
0.07
0
0.25
0
-0.59
0
0.01
-0.01
0

> <PUBCHEM_SHAPE_SELFOVERLAP>
756.765

> <PUBCHEM_SHAPE_VOLUME>
172.5

> <PUBCHEM_COORDINATE_TYPE>
2
5
10

$$$$
