141897
  -OEChem-06212212563D

 24 23  0     0  0  0  0  0  0999 V2000
    1.4208    0.0975    1.0180 O   0  0  0  0  0  0  0  0  0  0  0  0
    0.2730    1.4126   -0.5832 O   0  0  0  0  0  0  0  0  0  0  0  0
    0.6501   -0.8700   -1.0242 O   0  0  0  0  0  0  0  0  0  0  0  0
   -1.9660   -0.3329   -0.4048 O   0  0  0  0  0  0  0  0  0  0  0  0
    0.3871    0.1020    0.0145 C   0  0  0  0  0  0  0  0  0  0  0  0
   -0.9743   -0.3017    0.6162 C   0  0  0  0  0  0  0  0  0  0  0  0
    1.6535   -1.1461    1.6635 C   0  0  0  0  0  0  0  0  0  0  0  0
   -0.1034    2.4588    0.3015 C   0  0  0  0  0  0  0  0  0  0  0  0
    1.8809   -0.6611   -1.7054 C   0  0  0  0  0  0  0  0  0  0  0  0
   -3.2217   -0.7593    0.1038 C   0  0  0  0  0  0  0  0  0  0  0  0
   -1.2780    0.3719    1.4250 H   0  0  0  0  0  0  0  0  0  0  0  0
   -0.9086   -1.3106    1.0401 H   0  0  0  0  0  0  0  0  0  0  0  0
    1.7456   -1.9699    0.9509 H   0  0  0  0  0  0  0  0  0  0  0  0
    0.8608   -1.3561    2.3865 H   0  0  0  0  0  0  0  0  0  0  0  0
    2.5933   -1.0664    2.2174 H   0  0  0  0  0  0  0  0  0  0  0  0
    0.4918    2.4450    1.2188 H   0  0  0  0  0  0  0  0  0  0  0  0
   -1.1700    2.4047    0.5347 H   0  0  0  0  0  0  0  0  0  0  0  0
    0.0751    3.4100   -0.2083 H   0  0  0  0  0  0  0  0  0  0  0  0
    1.8793    0.3031   -2.2219 H   0  0  0  0  0  0  0  0  0  0  0  0
    1.9913   -1.4499   -2.4546 H   0  0  0  0  0  0  0  0  0  0  0  0
    2.7310   -0.7185   -1.0203 H   0  0  0  0  0  0  0  0  0  0  0  0
   -3.1512   -1.7769    0.5000 H   0  0  0  0  0  0  0  0  0  0  0  0
   -3.9444   -0.7549   -0.7165 H   0  0  0  0  0  0  0  0  0  0  0  0
   -3.5735   -0.0747    0.8817 H   0  0  0  0  0  0  0  0  0  0  0  0
  1  5  1  0  0  0  0
  1  7  1  0  0  0  0
  2  5  1  0  0  0  0
  2  8  1  0  0  0  0
  3  5  1  0  0  0  0
  3  9  1  0  0  0  0
  4  6  1  0  0  0  0
  4 10  1  0  0  0  0
  5  6  1  0  0  0  0
  6 11  1  0  0  0  0
  6 12  1  0  0  0  0
  7 13  1  0  0  0  0
  7 14  1  0  0  0  0
  7 15  1  0  0  0  0
  8 16  1  0  0  0  0
  8 17  1  0  0  0  0
  8 18  1  0  0  0  0
  9 19  1  0  0  0  0
  9 20  1  0  0  0  0
  9 21  1  0  0  0  0
 10 22  1  0  0  0  0
 10 23  1  0  0  0  0
 10 24  1  0  0  0  0
M  END
> <PUBCHEM_COMPOUND_CID>
141897

> <PUBCHEM_CONFORMER_RMSD>
0.6

> <PUBCHEM_CONFORMER_DIVERSEORDER>
2
1
4
5
3

> <PUBCHEM_MMFF94_PARTIAL_CHARGES>
10
1 -0.56
10 0.28
2 -0.56
3 -0.56
4 -0.56
5 0.84
6 0.28
7 0.28
8 0.28
9 0.28

> <PUBCHEM_EFFECTIVE_ROTOR_COUNT>
5

> <PUBCHEM_PHARMACOPHORE_FEATURES>
4
1 1 acceptor
1 2 acceptor
1 3 acceptor
1 4 acceptor

> <PUBCHEM_HEAVY_ATOM_COUNT>
10

> <PUBCHEM_ATOM_DEF_STEREO_COUNT>
0

> <PUBCHEM_ATOM_UDEF_STEREO_COUNT>
0

> <PUBCHEM_BOND_DEF_STEREO_COUNT>
0

> <PUBCHEM_BOND_UDEF_STEREO_COUNT>
0

> <PUBCHEM_ISOTOPIC_ATOM_COUNT>
0

> <PUBCHEM_COMPONENT_COUNT>
1

> <PUBCHEM_CACTVS_TAUTO_COUNT>
1

> <PUBCHEM_CONFORMER_ID>
00022A4900000002

> <PUBCHEM_MMFF94_ENERGY>
34.2406

> <PUBCHEM_FEATURE_SELFOVERLAP>
20.417

> <PUBCHEM_SHAPE_FINGERPRINT>
12423570 1 17263337926417877548
12932764 1 17968661644104149947
137420 1 12008546749476784006
14128692 85 17168135689835252323
20653085 51 14492196096281585438
20653091 64 18263084469289627417
20711985 344 18124325912737989857
21524375 3 17331112210070805585
21930827 45 17624416376801308424
23211744 25 17463437222912684831
23211744 41 17327188048564841649
23552333 60 17241054210062096178
23552449 11 18337381764265703859
4369600 1 18261970599211556226
5943 1 13584021134068029956
59915604 170 17974885978991030156
68419 9 17608669218581298100
76951 1 17968951906003452624

> <PUBCHEM_SHAPE_MULTIPOLES>
182.32
3.1
1.76
1.48
2.81
1.6
0.04
-1.66
0.25
-0.06
-0.29
-1.25
-0.56
-0.13

> <PUBCHEM_SHAPE_SELFOVERLAP>
330.875

> <PUBCHEM_SHAPE_VOLUME>
116.9

> <PUBCHEM_COORDINATE_TYPE>
2
5
10

$$$$
