38306
  -OEChem-06212212533D

 22 23  0     0  0  0  0  0  0999 V2000
   -0.6000    2.6103   -0.0047 Cl  0  0  0  0  0  0  0  0  0  0  0  0
   -3.7544    2.5023   -0.0044 Cl  0  0  0  0  0  0  0  0  0  0  0  0
   -3.4679   -2.9549    0.0046 Cl  0  0  0  0  0  0  0  0  0  0  0  0
    3.6497   -0.0997    2.7451 Cl  0  0  0  0  0  0  0  0  0  0  0  0
    3.6522   -0.1125   -2.7436 Cl  0  0  0  0  0  0  0  0  0  0  0  0
   -5.2163   -0.2901    0.0019 Cl  0  0  0  0  0  0  0  0  0  0  0  0
    5.2903   -0.1106    0.0013 Cl  0  0  0  0  0  0  0  0  0  0  0  0
   -0.6845   -0.0998   -0.0009 C   0  0  0  0  0  0  0  0  0  0  0  0
    0.7623   -0.1020   -0.0004 C   0  0  0  0  0  0  0  0  0  0  0  0
   -1.4332    1.0805   -0.0028 C   0  0  0  0  0  0  0  0  0  0  0  0
   -1.3402   -1.3336    0.0017 C   0  0  0  0  0  0  0  0  0  0  0  0
    1.4601   -0.1058   -1.2081 C   0  0  0  0  0  0  0  0  0  0  0  0
    1.4594   -0.1003    1.2079 C   0  0  0  0  0  0  0  0  0  0  0  0
   -2.8270    1.0270   -0.0020 C   0  0  0  0  0  0  0  0  0  0  0  0
   -2.7342   -1.3873    0.0026 C   0  0  0  0  0  0  0  0  0  0  0  0
    2.8543   -0.1023    1.2083 C   0  0  0  0  0  0  0  0  0  0  0  0
    2.8550   -0.1080   -1.2076 C   0  0  0  0  0  0  0  0  0  0  0  0
   -3.4774   -0.2069    0.0005 C   0  0  0  0  0  0  0  0  0  0  0  0
    3.5520   -0.1062    0.0006 C   0  0  0  0  0  0  0  0  0  0  0  0
   -0.7624   -2.2567    0.0032 H   0  0  0  0  0  0  0  0  0  0  0  0
    0.9147   -0.1068   -2.1503 H   0  0  0  0  0  0  0  0  0  0  0  0
    0.9133   -0.0970    2.1497 H   0  0  0  0  0  0  0  0  0  0  0  0
  1 10  1  0  0  0  0
  2 14  1  0  0  0  0
  3 15  1  0  0  0  0
  4 16  1  0  0  0  0
  5 17  1  0  0  0  0
  6 18  1  0  0  0  0
  7 19  1  0  0  0  0
  8  9  1  0  0  0  0
  8 10  1  0  0  0  0
  8 11  2  0  0  0  0
  9 12  2  0  0  0  0
  9 13  1  0  0  0  0
 10 14  2  0  0  0  0
 11 15  1  0  0  0  0
 11 20  1  0  0  0  0
 12 17  1  0  0  0  0
 12 21  1  0  0  0  0
 13 16  2  0  0  0  0
 13 22  1  0  0  0  0
 14 18  1  0  0  0  0
 15 18  2  0  0  0  0
 16 19  1  0  0  0  0
 17 19  2  0  0  0  0
M  END
> <PUBCHEM_COMPOUND_CID>
38306

> <PUBCHEM_CONFORMER_RMSD>
0.6

> <PUBCHEM_CONFORMER_DIVERSEORDER>
1

> <PUBCHEM_MMFF94_PARTIAL_CHARGES>
20
1 -0.18
10 0.18
11 -0.15
12 -0.15
13 -0.15
14 0.18
15 0.18
16 0.18
17 0.18
18 0.18
19 0.18
2 -0.18
20 0.15
21 0.15
22 0.15
3 -0.18
4 -0.18
5 -0.18
6 -0.18
7 -0.18

> <PUBCHEM_EFFECTIVE_ROTOR_COUNT>
1

> <PUBCHEM_PHARMACOPHORE_FEATURES>
2
6 8 10 11 14 15 18 rings
6 9 12 13 16 17 19 rings

> <PUBCHEM_HEAVY_ATOM_COUNT>
19

> <PUBCHEM_ATOM_DEF_STEREO_COUNT>
0

> <PUBCHEM_ATOM_UDEF_STEREO_COUNT>
0

> <PUBCHEM_BOND_DEF_STEREO_COUNT>
0

> <PUBCHEM_BOND_UDEF_STEREO_COUNT>
0

> <PUBCHEM_ISOTOPIC_ATOM_COUNT>
0

> <PUBCHEM_COMPONENT_COUNT>
1

> <PUBCHEM_CACTVS_TAUTO_COUNT>
1

> <PUBCHEM_CONFORMER_ID>
000095A200000001

> <PUBCHEM_MMFF94_ENERGY>
54.9222

> <PUBCHEM_FEATURE_SELFOVERLAP>
10.149

> <PUBCHEM_SHAPE_FINGERPRINT>
10062212 137 17894907417160436195
10319926 262 18198603498610513898
10498660 4 18339084778606928405
11471102 20 15913325797784720738
12173636 292 18194401083396268677
12236239 1 17676487241674285738
12390115 104 18056492664535097089
12403259 415 17703783713013718448
12553582 1 18264776622249215291
12788726 201 18186803548021012625
13009979 54 17750502993439608856
13134695 92 15213287613583901158
13140716 1 18266742579394100291
13544592 145 17703803491475351095
13583140 156 17986079995510177450
14386348 63 17846785113016853990
15219456 202 17489863838957418456
15842332 3 17676206874772874194
16752209 62 18408323268176004639
16945 1 18410575098339271563
17804303 29 18341332284043524681
18186145 218 17703233910150238809
19049666 15 17631458860451462642
19862831 5 17749113317625892406
200 152 16660357086738389335
20279233 1 17775289369399718086
20510252 161 18272089340930771257
20511986 3 17676477367565870500
20600515 1 18341322349341700609
21033648 29 17489577952906941905
21065201 7 18342177756376328310
21267235 1 18334866021278771539
21639500 275 15936416688397243926
22112679 90 18040154006796040652
2255824 54 16443347559792467826
22943178 12 17703792526281328334
23175994 123 16988851578789007368
23366157 5 17681549561166491525
23402539 116 18411976957709357164
23526113 38 17130994140342181598
23557571 272 18202002118388927832
23559900 14 18271811151635482630
23598288 3 17532918425015323797
2838139 119 15122686687614302683
474 4 16516263949594571332
573450 72 18259978267004446098
5902787 121 18264765635389991179
602551 16 18413105091310865106
6049 1 17703801331011562986
633830 44 14045183077325795992
7615 1 17676480661763250444
77492 1 17676206870504157154
81228 2 18270974444408420057

> <PUBCHEM_SHAPE_MULTIPOLES>
404.1
9.99
2.16
1.76
0.9
0.26
0
-1.22
0
-3.86
0
3.7
-0.12
0.01

> <PUBCHEM_SHAPE_SELFOVERLAP>
812.467

> <PUBCHEM_SHAPE_VOLUME>
229.5

> <PUBCHEM_COORDINATE_TYPE>
2
5
10

$$$$
