35454
  -OEChem-06212212513D

 22 24  0     0  0  0  0  0  0999 V2000
   -1.5046    3.1361    0.0003 Cl  0  0  0  0  0  0  0  0  0  0  0  0
   -1.5048   -3.1360   -0.0005 Cl  0  0  0  0  0  0  0  0  0  0  0  0
   -4.2564    1.5740   -0.0005 Cl  0  0  0  0  0  0  0  0  0  0  0  0
   -4.2568   -1.5740    0.0008 Cl  0  0  0  0  0  0  0  0  0  0  0  0
    0.8230    1.4269   -0.0002 O   0  0  0  0  0  0  0  0  0  0  0  0
    0.8229   -1.4269   -0.0002 O   0  0  0  0  0  0  0  0  0  0  0  0
   -0.3386    0.6970   -0.0001 C   0  0  0  0  0  0  0  0  0  0  0  0
   -0.3386   -0.6970   -0.0001 C   0  0  0  0  0  0  0  0  0  0  0  0
    1.9847    0.6971   -0.0001 C   0  0  0  0  0  0  0  0  0  0  0  0
    1.9846   -0.6971    0.0000 C   0  0  0  0  0  0  0  0  0  0  0  0
   -1.5437    1.3985    0.0001 C   0  0  0  0  0  0  0  0  0  0  0  0
   -1.5438   -1.3984   -0.0001 C   0  0  0  0  0  0  0  0  0  0  0  0
   -2.7503    0.6981    0.0001 C   0  0  0  0  0  0  0  0  0  0  0  0
   -2.7504   -0.6979    0.0000 C   0  0  0  0  0  0  0  0  0  0  0  0
    3.1899    1.3984   -0.0001 C   0  0  0  0  0  0  0  0  0  0  0  0
    3.1898   -1.3985    0.0002 C   0  0  0  0  0  0  0  0  0  0  0  0
    4.3965    0.6979    0.0001 C   0  0  0  0  0  0  0  0  0  0  0  0
    4.3965   -0.6981    0.0003 C   0  0  0  0  0  0  0  0  0  0  0  0
    3.1975    2.4847   -0.0002 H   0  0  0  0  0  0  0  0  0  0  0  0
    3.1974   -2.4848    0.0003 H   0  0  0  0  0  0  0  0  0  0  0  0
    5.3379    1.2397    0.0001 H   0  0  0  0  0  0  0  0  0  0  0  0
    5.3379   -1.2399    0.0004 H   0  0  0  0  0  0  0  0  0  0  0  0
  1 11  1  0  0  0  0
  2 12  1  0  0  0  0
  3 13  1  0  0  0  0
  4 14  1  0  0  0  0
  5  7  1  0  0  0  0
  5  9  1  0  0  0  0
  6  8  1  0  0  0  0
  6 10  1  0  0  0  0
  7  8  2  0  0  0  0
  7 11  1  0  0  0  0
  8 12  1  0  0  0  0
  9 10  1  0  0  0  0
  9 15  2  0  0  0  0
 10 16  2  0  0  0  0
 11 13  2  0  0  0  0
 12 14  2  0  0  0  0
 13 14  1  0  0  0  0
 15 17  1  0  0  0  0
 15 19  1  0  0  0  0
 16 18  1  0  0  0  0
 16 20  1  0  0  0  0
 17 18  2  0  0  0  0
 17 21  1  0  0  0  0
 18 22  1  0  0  0  0
M  END
> <PUBCHEM_COMPOUND_CID>
35454

> <PUBCHEM_CONFORMER_RMSD>
0.6

> <PUBCHEM_CONFORMER_DIVERSEORDER>
1

> <PUBCHEM_MMFF94_PARTIAL_CHARGES>
22
1 -0.18
10 0.08
11 0.18
12 0.18
13 0.18
14 0.18
15 -0.15
16 -0.15
17 -0.15
18 -0.15
19 0.15
2 -0.18
20 0.15
21 0.15
22 0.15
3 -0.18
4 -0.18
5 -0.17
6 -0.17
7 0.08
8 0.08
9 0.08

> <PUBCHEM_EFFECTIVE_ROTOR_COUNT>
0.4

> <PUBCHEM_PHARMACOPHORE_FEATURES>
5
1 5 acceptor
1 6 acceptor
6 5 6 7 8 9 10 rings
6 7 8 11 12 13 14 rings
6 9 10 15 16 17 18 rings

> <PUBCHEM_HEAVY_ATOM_COUNT>
18

> <PUBCHEM_ATOM_DEF_STEREO_COUNT>
0

> <PUBCHEM_ATOM_UDEF_STEREO_COUNT>
0

> <PUBCHEM_BOND_DEF_STEREO_COUNT>
0

> <PUBCHEM_BOND_UDEF_STEREO_COUNT>
0

> <PUBCHEM_ISOTOPIC_ATOM_COUNT>
0

> <PUBCHEM_COMPONENT_COUNT>
1

> <PUBCHEM_CACTVS_TAUTO_COUNT>
1

> <PUBCHEM_CONFORMER_ID>
00008A7E00000001

> <PUBCHEM_MMFF94_ENERGY>
53.9513

> <PUBCHEM_FEATURE_SELFOVERLAP>
25.449

> <PUBCHEM_SHAPE_FINGERPRINT>
10319926 262 18269531924593110570
10411042 1 17834114521365616586
10608611 8 18412542111413861960
10616163 171 18339645641469935926
10967382 1 18266458882990791430
11132069 177 18412259528024235752
11578080 2 16986860487880316931
12173636 292 18338794503210307085
12403259 226 18412821387225087208
12403814 3 17603583028268159845
12553582 1 18267579285334519311
13140716 1 18194966468099793834
13221675 6 18410854352227143954
13380535 76 18341895147401527670
13583140 156 14333140662840773279
138480 1 16681191410920145859
13862211 1 18339075003567350079
14790565 3 18196660592624009209
15042514 8 18409171034438173475
15196674 1 18410573989583561996
15309172 13 18339370660467413529
15442244 35 18265330604247255282
15536298 74 18341895195194495106
16945 1 18410575084816046726
17492 89 18409729521762786370
17804303 29 18413111658315548716
18186145 218 18114176411112159670
19591789 44 18122065308061993227
200 152 17988917881981082213
20510252 161 18342740693465758705
21029758 11 18341044229118965573
21029758 27 18189342427949107021
21267235 1 18337963375462123270
21501502 16 18410575084958484516
221490 88 17758961806754034803
2334 1 17978511158784567982
23402539 116 18271519875453796663
23463225 33 18408604764564228820
23557571 272 18272099330692015518
23559900 14 18342736283188421082
238 59 16454567830613753325
2748010 2 17980755253316225872
2871803 45 18335133219610240343
335352 9 18338798892682389566
34934 24 18267015240269926002
350125 39 18265900150848540920
4214541 1 18410575080468409856
474 4 17168995659006448340
5104073 3 18410572881423997792
54173680 148 18265616665753425683
58051976 378 18269551646038421677
69090 78 18411978031509209583
7364860 26 18124313809652525222
8809292 202 18262801890295636810
9709674 26 18413394237136167702

> <PUBCHEM_SHAPE_MULTIPOLES>
366.17
8.05
2.95
0.62
3.29
0
0
0
0
-2.27
0
-0.03
0
0

> <PUBCHEM_SHAPE_SELFOVERLAP>
781.922

> <PUBCHEM_SHAPE_VOLUME>
205.9

> <PUBCHEM_COORDINATE_TYPE>
2
5
10

$$$$
