18636
  -OEChem-06212212553D

 22 24  0     0  0  0  0  0  0999 V2000
   -2.3266    3.1357   -0.0004 Cl  0  0  0  0  0  0  0  0  0  0  0  0
   -2.3267   -3.1362   -0.0011 Cl  0  0  0  0  0  0  0  0  0  0  0  0
    2.3259    3.1357    0.0000 Cl  0  0  0  0  0  0  0  0  0  0  0  0
    2.3272   -3.1361    0.0001 Cl  0  0  0  0  0  0  0  0  0  0  0  0
   -5.0795    1.5741   -0.0002 Cl  0  0  0  0  0  0  0  0  0  0  0  0
   -5.0794   -1.5745    0.0021 Cl  0  0  0  0  0  0  0  0  0  0  0  0
    5.0792    1.5744    0.0001 Cl  0  0  0  0  0  0  0  0  0  0  0  0
    5.0796   -1.5737    0.0002 Cl  0  0  0  0  0  0  0  0  0  0  0  0
    0.0000    1.4270    0.0000 O   0  0  0  0  0  0  0  0  0  0  0  0
   -0.0001   -1.4268   -0.0004 O   0  0  0  0  0  0  0  0  0  0  0  0
   -1.1617    0.6971   -0.0001 C   0  0  0  0  0  0  0  0  0  0  0  0
    1.1617    0.6971    0.0000 C   0  0  0  0  0  0  0  0  0  0  0  0
   -1.1616   -0.6969   -0.0003 C   0  0  0  0  0  0  0  0  0  0  0  0
    1.1616   -0.6971   -0.0001 C   0  0  0  0  0  0  0  0  0  0  0  0
   -2.3667    1.3985    0.0002 C   0  0  0  0  0  0  0  0  0  0  0  0
   -2.3669   -1.3984   -0.0005 C   0  0  0  0  0  0  0  0  0  0  0  0
    2.3669    1.3984    0.0002 C   0  0  0  0  0  0  0  0  0  0  0  0
    2.3668   -1.3985    0.0000 C   0  0  0  0  0  0  0  0  0  0  0  0
   -3.5734   -0.6979   -0.0003 C   0  0  0  0  0  0  0  0  0  0  0  0
    3.5734   -0.6980    0.0003 C   0  0  0  0  0  0  0  0  0  0  0  0
    3.5734    0.6980    0.0003 C   0  0  0  0  0  0  0  0  0  0  0  0
   -3.5733    0.6981    0.0000 C   0  0  0  0  0  0  0  0  0  0  0  0
  1 15  1  0  0  0  0
  2 16  1  0  0  0  0
  3 17  1  0  0  0  0
  4 18  1  0  0  0  0
  5 22  1  0  0  0  0
  6 19  1  0  0  0  0
  7 21  1  0  0  0  0
  8 20  1  0  0  0  0
  9 11  1  0  0  0  0
  9 12  1  0  0  0  0
 10 13  1  0  0  0  0
 10 14  1  0  0  0  0
 11 13  2  0  0  0  0
 11 15  1  0  0  0  0
 12 14  2  0  0  0  0
 12 17  1  0  0  0  0
 13 16  1  0  0  0  0
 14 18  1  0  0  0  0
 15 22  2  0  0  0  0
 16 19  2  0  0  0  0
 17 21  2  0  0  0  0
 18 20  2  0  0  0  0
 19 22  1  0  0  0  0
 20 21  1  0  0  0  0
M  END
> <PUBCHEM_COMPOUND_CID>
18636

> <PUBCHEM_CONFORMER_RMSD>
0.6

> <PUBCHEM_CONFORMER_DIVERSEORDER>
1

> <PUBCHEM_MMFF94_PARTIAL_CHARGES>
22
1 -0.18
10 -0.17
11 0.08
12 0.08
13 0.08
14 0.08
15 0.18
16 0.18
17 0.18
18 0.18
19 0.18
2 -0.18
20 0.18
21 0.18
22 0.18
3 -0.18
4 -0.18
5 -0.18
6 -0.18
7 -0.18
8 -0.18
9 -0.17

> <PUBCHEM_EFFECTIVE_ROTOR_COUNT>
0.4

> <PUBCHEM_PHARMACOPHORE_FEATURES>
5
1 10 acceptor
1 9 acceptor
6 11 13 15 16 19 22 rings
6 12 14 17 18 20 21 rings
6 9 10 11 12 13 14 rings

> <PUBCHEM_HEAVY_ATOM_COUNT>
22

> <PUBCHEM_ATOM_DEF_STEREO_COUNT>
0

> <PUBCHEM_ATOM_UDEF_STEREO_COUNT>
0

> <PUBCHEM_BOND_DEF_STEREO_COUNT>
0

> <PUBCHEM_BOND_UDEF_STEREO_COUNT>
0

> <PUBCHEM_ISOTOPIC_ATOM_COUNT>
0

> <PUBCHEM_COMPONENT_COUNT>
1

> <PUBCHEM_CACTVS_TAUTO_COUNT>
1

> <PUBCHEM_CONFORMER_ID>
000048CC00000001

> <PUBCHEM_MMFF94_ENERGY>
64.838

> <PUBCHEM_FEATURE_SELFOVERLAP>
25.449

> <PUBCHEM_SHAPE_FINGERPRINT>
10608611 8 18410571786128487904
10616163 171 18339363092382038647
10967382 1 18338797797439354886
1100329 8 17762336911923347753
12107183 9 17689997830023807690
12403259 226 18410569591400582917
12788726 201 17417541211225847937
13140716 1 18266741470348181801
138480 1 17617940227549769731
14178342 30 18338500989861973138
14223421 5 18410575106137921901
14341114 176 18410580578058366240
14790565 3 18410581686028410500
14866123 147 16540738691491573778
15042514 8 18409172138640303483
15196674 1 18410855460128161793
15442244 35 18266740169131456914
15536298 74 18341894095667043076
16945 1 18410855464423129094
17492 89 18410855421806675019
17804303 29 18411141320292940005
1813 80 17095524006508822940
18681886 176 18342451561148058018
19591789 44 18410575084663130883
200 152 18131067156056398287
20510252 161 18342459218874098433
20645477 70 18343303652288929798
21065198 57 18410856593999528000
21267235 1 18410582785539973315
21421861 104 17968930869491228810
221490 88 18336835302713032338
23227448 37 18411980286551689125
2334 1 17978511167210913799
23366157 5 18114185186178971994
23402539 116 18342450435797768943
23557571 272 18272378619345860037
23558518 356 18260555532041576016
23559900 14 18412820287776496696
2748010 2 17978229683644268568
3004659 81 18261396612152351630
335352 9 18338797814550626749
34934 24 18410851066382139587
350125 39 18410577283718450721
3545911 37 18411702131611195088
4214541 1 18410575071804563781
4280585 95 17766853728031284782
474 4 17604434127614542292
5104073 3 18410855460128162744
58051976 378 18340487871613185820
59755656 215 18410012169407090886
7364860 26 18412263939340510596
7832392 63 18339077090894471536
9709674 26 18411423916282930391
9981440 41 17615686675842985624

> <PUBCHEM_SHAPE_MULTIPOLES>
455.97
10.33
3.71
0.62
0
0
0
0
0
0
0
0
0
0

> <PUBCHEM_SHAPE_SELFOVERLAP>
940.429

> <PUBCHEM_SHAPE_VOLUME>
268.3

> <PUBCHEM_COORDINATE_TYPE>
2
5
10

$$$$
