63079
  -OEChem-06212212543D

 22 23  0     0  0  0  0  0  0999 V2000
   -0.5831    2.7182   -0.1042 Cl  0  0  0  0  0  0  0  0  0  0  0  0
   -0.5839   -2.7183   -0.1041 Cl  0  0  0  0  0  0  0  0  0  0  0  0
   -3.7695   -2.6650    0.1422 Cl  0  0  0  0  0  0  0  0  0  0  0  0
   -3.7681    2.6660    0.1429 Cl  0  0  0  0  0  0  0  0  0  0  0  0
    3.8060    0.0010    2.2999 Cl  0  0  0  0  0  0  0  0  0  0  0  0
    5.1987   -0.0004   -0.6208 Cl  0  0  0  0  0  0  0  0  0  0  0  0
   -0.7418   -0.0003   -0.0891 C   0  0  0  0  0  0  0  0  0  0  0  0
    0.7006   -0.0003   -0.2014 C   0  0  0  0  0  0  0  0  0  0  0  0
   -1.4474    1.2078   -0.0369 C   0  0  0  0  0  0  0  0  0  0  0  0
   -1.4477   -1.2081   -0.0334 C   0  0  0  0  0  0  0  0  0  0  0  0
    1.4905    0.0005    0.9483 C   0  0  0  0  0  0  0  0  0  0  0  0
    1.3014   -0.0011   -1.4603 C   0  0  0  0  0  0  0  0  0  0  0  0
   -2.8386   -1.2078    0.0731 C   0  0  0  0  0  0  0  0  0  0  0  0
   -2.8382    1.2081    0.0694 C   0  0  0  0  0  0  0  0  0  0  0  0
   -3.5338    0.0004    0.1245 C   0  0  0  0  0  0  0  0  0  0  0  0
    2.8810    0.0005    0.8391 C   0  0  0  0  0  0  0  0  0  0  0  0
    2.6920   -0.0010   -1.5695 C   0  0  0  0  0  0  0  0  0  0  0  0
    3.4818   -0.0004   -0.4197 C   0  0  0  0  0  0  0  0  0  0  0  0
    1.0209    0.0011    1.9304 H   0  0  0  0  0  0  0  0  0  0  0  0
    0.7004   -0.0017   -2.3666 H   0  0  0  0  0  0  0  0  0  0  0  0
   -4.6189    0.0007    0.2075 H   0  0  0  0  0  0  0  0  0  0  0  0
    3.1433   -0.0016   -2.5584 H   0  0  0  0  0  0  0  0  0  0  0  0
  1  9  1  0  0  0  0
  2 10  1  0  0  0  0
  3 13  1  0  0  0  0
  4 14  1  0  0  0  0
  5 16  1  0  0  0  0
  6 18  1  0  0  0  0
  7  8  1  0  0  0  0
  7  9  2  0  0  0  0
  7 10  1  0  0  0  0
  8 11  2  0  0  0  0
  8 12  1  0  0  0  0
  9 14  1  0  0  0  0
 10 13  2  0  0  0  0
 11 16  1  0  0  0  0
 11 19  1  0  0  0  0
 12 17  2  0  0  0  0
 12 20  1  0  0  0  0
 13 15  1  0  0  0  0
 14 15  2  0  0  0  0
 15 21  1  0  0  0  0
 16 18  2  0  0  0  0
 17 18  1  0  0  0  0
 17 22  1  0  0  0  0
M  END
> <PUBCHEM_COMPOUND_CID>
63079

> <PUBCHEM_CONFORMER_RMSD>
0.6

> <PUBCHEM_CONFORMER_DIVERSEORDER>
1

> <PUBCHEM_MMFF94_PARTIAL_CHARGES>
20
1 -0.18
10 0.18
11 -0.15
12 -0.15
13 0.18
14 0.18
15 -0.15
16 0.18
17 -0.15
18 0.18
19 0.15
2 -0.18
20 0.15
21 0.15
22 0.15
3 -0.18
4 -0.18
5 -0.18
6 -0.18
9 0.18

> <PUBCHEM_EFFECTIVE_ROTOR_COUNT>
1

> <PUBCHEM_PHARMACOPHORE_FEATURES>
2
6 7 9 10 13 14 15 rings
6 8 11 12 16 17 18 rings

> <PUBCHEM_HEAVY_ATOM_COUNT>
18

> <PUBCHEM_ATOM_DEF_STEREO_COUNT>
0

> <PUBCHEM_ATOM_UDEF_STEREO_COUNT>
0

> <PUBCHEM_BOND_DEF_STEREO_COUNT>
0

> <PUBCHEM_BOND_UDEF_STEREO_COUNT>
0

> <PUBCHEM_ISOTOPIC_ATOM_COUNT>
0

> <PUBCHEM_COMPONENT_COUNT>
1

> <PUBCHEM_CACTVS_TAUTO_COUNT>
1

> <PUBCHEM_CONFORMER_ID>
0000F66700000001

> <PUBCHEM_MMFF94_ENERGY>
51.6493

> <PUBCHEM_FEATURE_SELFOVERLAP>
10.149

> <PUBCHEM_SHAPE_FINGERPRINT>
10062212 137 17967531264018565777
10319926 262 18270098172917923770
11132069 177 18411698751493214113
11725454 13 17128415832397681392
12236239 1 17676490548799038780
12403259 415 17847061094957064560
12500047 106 18342457019634642854
12553582 1 18265053724722508243
12788726 201 18115874160171541843
13140716 1 18267030642861017145
13538477 17 18187644682763303540
13581323 91 18409726296262757406
13583140 156 17917694795936568858
14178342 30 18409725132442580427
14420673 8 17977934697503351114
15219456 202 17561360699371617824
15375462 189 17822295716274809696
16752209 62 18408602586868486919
16945 1 18410860962735557565
18186145 218 17775008955232183954
19049666 15 17774169980773935902
19422 9 17822007618590520922
200 152 16660639686970222814
20510252 161 18343308093121200233
20600515 1 18340474600022654400
20871999 31 18411143557997262204
21033648 29 17561072610060966768
21065201 7 18413390921405337326
22112679 90 17967530164275063228
2297311 6 18341628035322715878
23175994 123 16988573394052709352
2334 1 17978795941640314647
23366157 5 17681553963418370677
23402539 116 18412544314441649110
23419403 2 17758358101818850117
23526113 38 17273424863650869670
23557571 272 18272939310083329461
23559900 14 18199755756705193398
23598291 2 17749685080957447316
23598294 1 18335696148151843226
2748010 2 18269851826130898119
43471831 8 18335416842350726235
474 4 16952544734778998772
495365 180 17273400699785014886
5104073 3 18412826880756752178
5265222 85 18271257127173105886
573450 72 18260543416192054546
5902787 121 18264770037657590473
6049 1 17775294879863682384
7097593 13 17825650171906723218
7364860 26 17838343238996206493
7615 1 17821726160630038701
77492 1 17676209073853970132
81228 2 18340779229436407459
90316 7 18115015316777805229

> <PUBCHEM_SHAPE_MULTIPOLES>
381.65
8.31
2.65
1.31
4.9
0
0.37
0
0.74
-4.33
0.03
2.01
0
0

> <PUBCHEM_SHAPE_SELFOVERLAP>
773.891

> <PUBCHEM_SHAPE_VOLUME>
215.8

> <PUBCHEM_COORDINATE_TYPE>
2
5
10

$$$$
