4369439
  -OEChem-06212212553D

  8  7  0     1  0  0  0  0  0999 V2000
    1.8252    1.4090   -0.0431 Br  0  0  0  0  0  0  0  0  0  0  0  0
    1.4950   -1.6012   -0.0492 Cl  0  0  0  0  0  0  0  0  0  0  0  0
   -1.2244    1.1933    0.4375 F   0  0  0  0  0  0  0  0  0  0  0  0
   -0.7161    0.0344   -1.3396 F   0  0  0  0  0  0  0  0  0  0  0  0
   -1.4551   -0.9686    0.4535 F   0  0  0  0  0  0  0  0  0  0  0  0
   -0.6673    0.0369    0.0097 C   0  0  0  0  0  0  0  0  0  0  0  0
    0.7428   -0.1038    0.5313 C   0  0  2  0  0  0  0  0  0  0  0  0
    0.7641   -0.1047    1.6243 H   0  0  0  0  0  0  0  0  0  0  0  0
  1  7  1  0  0  0  0
  2  7  1  0  0  0  0
  3  6  1  0  0  0  0
  4  6  1  0  0  0  0
  5  6  1  0  0  0  0
  6  7  1  0  0  0  0
  7  8  1  0  0  0  0
M  END
> <PUBCHEM_COMPOUND_CID>
4369439

> <PUBCHEM_CONFORMER_RMSD>
0.4

> <PUBCHEM_CONFORMER_DIVERSEORDER>
1

> <PUBCHEM_MMFF94_PARTIAL_CHARGES>
7
1 -0.23
2 -0.29
3 -0.34
4 -0.34
5 -0.34
6 1.02
7 0.52

> <PUBCHEM_EFFECTIVE_ROTOR_COUNT>
1

> <PUBCHEM_PHARMACOPHORE_FEATURES>
1
1 1 hydrophobe

> <PUBCHEM_HEAVY_ATOM_COUNT>
7

> <PUBCHEM_ATOM_DEF_STEREO_COUNT>
1

> <PUBCHEM_ATOM_UDEF_STEREO_COUNT>
0

> <PUBCHEM_BOND_DEF_STEREO_COUNT>
0

> <PUBCHEM_BOND_UDEF_STEREO_COUNT>
0

> <PUBCHEM_ISOTOPIC_ATOM_COUNT>
0

> <PUBCHEM_COMPONENT_COUNT>
1

> <PUBCHEM_CACTVS_TAUTO_COUNT>
1

> <PUBCHEM_CONFORMER_ID>
0042AC1F00000001

> <PUBCHEM_MMFF94_ENERGY>
3.7257

> <PUBCHEM_FEATURE_SELFOVERLAP>
5.074

> <PUBCHEM_SHAPE_FINGERPRINT>
16714656 1 17759808434959665320
20096714 4 18412267216105457304
21040471 1 18050850215141262080
24536 1 18337936927190203528
29004967 10 18191873537601245315
5943 1 17702358707394688998

> <PUBCHEM_SHAPE_MULTIPOLES>
130.05
2.17
1.68
0.87
0.39
0.48
0.2
-0.45
-0.06
0.71
-0.05
-0.12
-0.04
0

> <PUBCHEM_SHAPE_SELFOVERLAP>
223.496

> <PUBCHEM_SHAPE_VOLUME>
89.9

> <PUBCHEM_COORDINATE_TYPE>
2
5
10

$$$$
