144702
  -OEChem-06212212523D

 20 19  0     0  0  0  0  0  0999 V2000
   -2.1593    1.5261   -0.5484 Cl  0  0  0  0  0  0  0  0  0  0  0  0
   -0.7091   -0.7602    1.0046 O   0  0  0  0  0  0  0  0  0  0  0  0
    0.6020    1.1511    0.5555 O   0  0  0  0  0  0  0  0  0  0  0  0
    1.0827   -0.9158   -0.5316 O   0  0  0  0  0  0  0  0  0  0  0  0
    0.0460   -0.0594   -0.0085 C   0  0  0  0  0  0  0  0  0  0  0  0
   -0.9026    0.4016   -1.1374 C   0  0  0  0  0  0  0  0  0  0  0  0
   -1.3958   -1.9231    0.5626 C   0  0  0  0  0  0  0  0  0  0  0  0
    1.5116    0.9204    1.6240 C   0  0  0  0  0  0  0  0  0  0  0  0
    1.9245   -0.3406   -1.5207 C   0  0  0  0  0  0  0  0  0  0  0  0
   -1.3941   -0.4331   -1.6445 H   0  0  0  0  0  0  0  0  0  0  0  0
   -0.3572    0.9649   -1.8999 H   0  0  0  0  0  0  0  0  0  0  0  0
   -2.2851   -1.6563   -0.0139 H   0  0  0  0  0  0  0  0  0  0  0  0
   -1.7293   -2.4721    1.4479 H   0  0  0  0  0  0  0  0  0  0  0  0
   -0.7435   -2.5791   -0.0203 H   0  0  0  0  0  0  0  0  0  0  0  0
    1.0076    0.4325    2.4632 H   0  0  0  0  0  0  0  0  0  0  0  0
    1.8848    1.8896    1.9662 H   0  0  0  0  0  0  0  0  0  0  0  0
    2.3658    0.3204    1.2986 H   0  0  0  0  0  0  0  0  0  0  0  0
    2.2963    0.6436   -1.2238 H   0  0  0  0  0  0  0  0  0  0  0  0
    1.4012   -0.2760   -2.4783 H   0  0  0  0  0  0  0  0  0  0  0  0
    2.7836   -1.0037   -1.6574 H   0  0  0  0  0  0  0  0  0  0  0  0
  1  6  1  0  0  0  0
  2  5  1  0  0  0  0
  2  7  1  0  0  0  0
  3  5  1  0  0  0  0
  3  8  1  0  0  0  0
  4  5  1  0  0  0  0
  4  9  1  0  0  0  0
  5  6  1  0  0  0  0
  6 10  1  0  0  0  0
  6 11  1  0  0  0  0
  7 12  1  0  0  0  0
  7 13  1  0  0  0  0
  7 14  1  0  0  0  0
  8 15  1  0  0  0  0
  8 16  1  0  0  0  0
  8 17  1  0  0  0  0
  9 18  1  0  0  0  0
  9 19  1  0  0  0  0
  9 20  1  0  0  0  0
M  END
> <PUBCHEM_COMPOUND_CID>
144702

> <PUBCHEM_CONFORMER_RMSD>
0.6

> <PUBCHEM_CONFORMER_DIVERSEORDER>
3
2
1

> <PUBCHEM_MMFF94_PARTIAL_CHARGES>
9
1 -0.29
2 -0.56
3 -0.56
4 -0.56
5 0.84
6 0.29
7 0.28
8 0.28
9 0.28

> <PUBCHEM_EFFECTIVE_ROTOR_COUNT>
4

> <PUBCHEM_PHARMACOPHORE_FEATURES>
3
1 2 acceptor
1 3 acceptor
1 4 acceptor

> <PUBCHEM_HEAVY_ATOM_COUNT>
9

> <PUBCHEM_ATOM_DEF_STEREO_COUNT>
0

> <PUBCHEM_ATOM_UDEF_STEREO_COUNT>
0

> <PUBCHEM_BOND_DEF_STEREO_COUNT>
0

> <PUBCHEM_BOND_UDEF_STEREO_COUNT>
0

> <PUBCHEM_ISOTOPIC_ATOM_COUNT>
0

> <PUBCHEM_COMPONENT_COUNT>
1

> <PUBCHEM_CACTVS_TAUTO_COUNT>
1

> <PUBCHEM_CONFORMER_ID>
0002353E00000003

> <PUBCHEM_MMFF94_ENERGY>
26.5601

> <PUBCHEM_FEATURE_SELFOVERLAP>
15.334

> <PUBCHEM_SHAPE_FINGERPRINT>
12423570 1 15229334624533770154
137420 1 14653752068567519788
20711978 78 17058953205954932446
21040471 1 18114736023886469973
21930827 45 18407758131741390245
23211744 25 18125159333882937741
23211744 41 17910068587222748001
29004967 10 17273685464637946871
5084963 1 17533203177273244157
5943 1 15937229201335302838
68250623 7 17624082327061401038

> <PUBCHEM_SHAPE_MULTIPOLES>
169.48
2.45
1.72
1.56
0.3
0.65
0.02
-0.73
-0.42
1.04
0.37
-0.99
-0.22
0.71

> <PUBCHEM_SHAPE_SELFOVERLAP>
299.107

> <PUBCHEM_SHAPE_VOLUME>
111.9

> <PUBCHEM_COORDINATE_TYPE>
2
5
10

$$$$
