96257
  -OEChem-06212212543D

 17 16  0     0  0  0  0  0  0999 V2000
    2.3976    0.6376   -0.0025 O   0  0  0  0  0  0  0  0  0  0  0  0
   -2.4032    0.6441   -0.0010 O   0  0  0  0  0  0  0  0  0  0  0  0
    3.4909   -1.2883    0.0041 O   0  5  0  0  0  0  0  0  0  0  0  0
   -3.4837   -1.2886    0.0010 O   0  5  0  0  0  0  0  0  0  0  0  0
    4.6707    0.6036    0.0133 O   0  0  0  0  0  0  0  0  0  0  0  0
   -4.6761    0.5954    0.0150 O   0  0  0  0  0  0  0  0  0  0  0  0
    3.6347   -0.0651    0.0056 N   0  3  0  0  0  0  0  0  0  0  0  0
   -3.6357   -0.0664    0.0058 N   0  3  0  0  0  0  0  0  0  0  0  0
    0.0049    0.6425   -0.0187 C   0  0  0  0  0  0  0  0  0  0  0  0
    1.2603   -0.2140   -0.0105 C   0  0  0  0  0  0  0  0  0  0  0  0
   -1.2604   -0.2009   -0.0120 C   0  0  0  0  0  0  0  0  0  0  0  0
    0.0072    1.3205    0.8445 H   0  0  0  0  0  0  0  0  0  0  0  0
    0.0080    1.3076   -0.8919 H   0  0  0  0  0  0  0  0  0  0  0  0
    1.2554   -0.8450    0.8872 H   0  0  0  0  0  0  0  0  0  0  0  0
    1.2666   -0.8452   -0.9082 H   0  0  0  0  0  0  0  0  0  0  0  0
   -1.2559   -0.8355    0.8834 H   0  0  0  0  0  0  0  0  0  0  0  0
   -1.2680   -0.8314   -0.9104 H   0  0  0  0  0  0  0  0  0  0  0  0
  1  7  1  0  0  0  0
  1 10  1  0  0  0  0
  2  8  1  0  0  0  0
  2 11  1  0  0  0  0
  3  7  1  0  0  0  0
  4  8  1  0  0  0  0
  5  7  2  0  0  0  0
  6  8  2  0  0  0  0
  9 10  1  0  0  0  0
  9 11  1  0  0  0  0
  9 12  1  0  0  0  0
  9 13  1  0  0  0  0
 10 14  1  0  0  0  0
 10 15  1  0  0  0  0
 11 16  1  0  0  0  0
 11 17  1  0  0  0  0
M  CHG  4   3  -1   4  -1   7   1   8   1
M  END
> <PUBCHEM_COMPOUND_CID>
96257

> <PUBCHEM_CONFORMER_RMSD>
0.6

> <PUBCHEM_CONFORMER_DIVERSEORDER>
1
29
36
5
24
25
40
26
23
30
58
28
34
21
4
55
51
22
63
37
48
31
44
7
12
47
2
54
27
46
49
3
59
8
35
14
43
18
6
32
62
61
33
17
9
11
45
42
39
13
57
60
52
50
20
10
56
19
53
15
16
41
38

> <PUBCHEM_MMFF94_PARTIAL_CHARGES>
10
1 -0.27
10 0.28
11 0.28
2 -0.27
3 -0.52
4 -0.52
5 -0.52
6 -0.52
7 1.03
8 1.03

> <PUBCHEM_EFFECTIVE_ROTOR_COUNT>
6

> <PUBCHEM_PHARMACOPHORE_FEATURES>
4
1 3 acceptor
1 4 acceptor
1 5 acceptor
1 6 acceptor

> <PUBCHEM_HEAVY_ATOM_COUNT>
11

> <PUBCHEM_ATOM_DEF_STEREO_COUNT>
0

> <PUBCHEM_ATOM_UDEF_STEREO_COUNT>
0

> <PUBCHEM_BOND_DEF_STEREO_COUNT>
0

> <PUBCHEM_BOND_UDEF_STEREO_COUNT>
0

> <PUBCHEM_ISOTOPIC_ATOM_COUNT>
0

> <PUBCHEM_COMPONENT_COUNT>
1

> <PUBCHEM_CACTVS_TAUTO_COUNT>
1

> <PUBCHEM_CONFORMER_ID>
0001780100000001

> <PUBCHEM_MMFF94_ENERGY>
23.1822

> <PUBCHEM_FEATURE_SELFOVERLAP>
20.439

> <PUBCHEM_SHAPE_FINGERPRINT>
11062470 55 18410575088968654184
11987891 38 18411139129896828018
14123238 8 18411981377309897212
14325111 11 18410573980877608846
18342897 14 17917712404748471168
190213 19 18410855464423148580
20645477 70 18270680861781940334
20719005 15 18410575088958046210
22485316 2 18410571790423292803
23402539 116 18333723628581325013
42788 4 18410856559639919493

> <PUBCHEM_SHAPE_MULTIPOLES>
181.2
9.63
0.99
0.54
0.02
0.24
0
0.1
0.07
0
0
0
0
0

> <PUBCHEM_SHAPE_SELFOVERLAP>
337.162

> <PUBCHEM_SHAPE_VOLUME>
114.2

> <PUBCHEM_COORDINATE_TYPE>
2
5
10

$$$$
