93462
  -OEChem-06212212573D

 21 21  0     0  0  0  0  0  0999 V2000
    2.6529   -2.0342    0.4232 Cl  0  0  0  0  0  0  0  0  0  0  0  0
   -2.6532   -2.0338   -0.4230 Cl  0  0  0  0  0  0  0  0  0  0  0  0
   -2.3522    0.9460   -0.3746 O   0  0  0  0  0  0  0  0  0  0  0  0
    2.3521    0.9456    0.3748 O   0  0  0  0  0  0  0  0  0  0  0  0
    0.0004    2.3113   -0.0001 O   0  0  0  0  0  0  0  0  0  0  0  0
   -1.1929    0.2504   -0.1907 C   0  0  0  0  0  0  0  0  0  0  0  0
    1.1929    0.2500    0.1903 C   0  0  0  0  0  0  0  0  0  0  0  0
    0.0001    0.9476   -0.0003 C   0  0  0  0  0  0  0  0  0  0  0  0
    1.1927   -1.1449    0.1902 C   0  0  0  0  0  0  0  0  0  0  0  0
   -1.1931   -1.1445   -0.1905 C   0  0  0  0  0  0  0  0  0  0  0  0
   -0.0003   -1.8421    0.0000 C   0  0  0  0  0  0  0  0  0  0  0  0
   -3.1006    1.2743    0.7931 C   0  0  0  0  0  0  0  0  0  0  0  0
    3.1010    1.2743   -0.7924 C   0  0  0  0  0  0  0  0  0  0  0  0
   -0.0004   -2.9301    0.0001 H   0  0  0  0  0  0  0  0  0  0  0  0
   -3.3950    0.3720    1.3377 H   0  0  0  0  0  0  0  0  0  0  0  0
   -4.0055    1.8029    0.4812 H   0  0  0  0  0  0  0  0  0  0  0  0
   -2.5227    1.9321    1.4500 H   0  0  0  0  0  0  0  0  0  0  0  0
    2.5413    1.9753   -1.4195 H   0  0  0  0  0  0  0  0  0  0  0  0
    3.3503    0.3776   -1.3682 H   0  0  0  0  0  0  0  0  0  0  0  0
    4.0311    1.7556   -0.4776 H   0  0  0  0  0  0  0  0  0  0  0  0
   -0.8988    2.6227   -0.2006 H   0  0  0  0  0  0  0  0  0  0  0  0
  1  9  1  0  0  0  0
  2 10  1  0  0  0  0
  3  6  1  0  0  0  0
  3 12  1  0  0  0  0
  4  7  1  0  0  0  0
  4 13  1  0  0  0  0
  5  8  1  0  0  0  0
  5 21  1  0  0  0  0
  6  8  2  0  0  0  0
  6 10  1  0  0  0  0
  7  8  1  0  0  0  0
  7  9  2  0  0  0  0
  9 11  1  0  0  0  0
 10 11  2  0  0  0  0
 11 14  1  0  0  0  0
 12 15  1  0  0  0  0
 12 16  1  0  0  0  0
 12 17  1  0  0  0  0
 13 18  1  0  0  0  0
 13 19  1  0  0  0  0
 13 20  1  0  0  0  0
M  END
> <PUBCHEM_COMPOUND_CID>
93462

> <PUBCHEM_CONFORMER_RMSD>
0.6

> <PUBCHEM_CONFORMER_DIVERSEORDER>
2
1

> <PUBCHEM_MMFF94_PARTIAL_CHARGES>
15
1 -0.18
10 0.18
11 -0.15
12 0.28
13 0.28
14 0.15
2 -0.18
21 0.45
3 -0.36
4 -0.36
5 -0.53
6 0.08
7 0.08
8 0.08
9 0.18

> <PUBCHEM_EFFECTIVE_ROTOR_COUNT>
2

> <PUBCHEM_PHARMACOPHORE_FEATURES>
4
1 3 acceptor
1 4 acceptor
1 5 donor
6 6 7 8 9 10 11 rings

> <PUBCHEM_HEAVY_ATOM_COUNT>
13

> <PUBCHEM_ATOM_DEF_STEREO_COUNT>
0

> <PUBCHEM_ATOM_UDEF_STEREO_COUNT>
0

> <PUBCHEM_BOND_DEF_STEREO_COUNT>
0

> <PUBCHEM_BOND_UDEF_STEREO_COUNT>
0

> <PUBCHEM_ISOTOPIC_ATOM_COUNT>
0

> <PUBCHEM_COMPONENT_COUNT>
1

> <PUBCHEM_CACTVS_TAUTO_COUNT>
2

> <PUBCHEM_CONFORMER_ID>
00016D1600000002

> <PUBCHEM_MMFF94_ENERGY>
51.4357

> <PUBCHEM_FEATURE_SELFOVERLAP>
20.297

> <PUBCHEM_SHAPE_FINGERPRINT>
10967382 1 18266737978640217522
11206711 2 18265608977903910375
12423570 1 9683014579291350382
13140716 1 18410852118659852466
13380535 21 18410865360027889510
14614273 12 18115853260722957644
14617773 55 18272641368539726327
15775835 57 18410864256221372384
16945 1 18122619719578433459
193761 8 18410570686616905606
20511035 2 18199733800310383230
21029758 27 17829340090127701726
21040471 1 18411695504297231368
21501502 16 18410854364922460071
2334 1 18410569617180656879
23419403 2 14883583675532384267
23463225 33 18409163277531733146
23552423 10 18333725810646633930
23559900 14 18271253820101197428
241688 4 18337942416100613035
2748010 2 18411414012040684694
5084963 1 17842262679926105595
528886 8 18411978052952469152
53812653 166 18271241724291279608
63268167 104 18410570674016665089
68250623 7 18410856559640270278
7364860 26 18342173320239373538

> <PUBCHEM_SHAPE_MULTIPOLES>
253.67
4.51
2.57
0.76
0
0.4
0
-0.32
0
0
0
0
-0.04
-0.85

> <PUBCHEM_SHAPE_SELFOVERLAP>
509.493

> <PUBCHEM_SHAPE_VOLUME>
152.7

> <PUBCHEM_COORDINATE_TYPE>
2
5
10

$$$$
