73272
  -OEChem-06212212543D

 12 12  0     0  0  0  0  0  0999 V2000
   -2.9878   -0.4428   -0.0001 Cl  0  0  0  0  0  0  0  0  0  0  0  0
    0.8917    2.5211    0.0005 O   0  0  0  0  0  0  0  0  0  0  0  0
    1.8038   -2.0128    0.0001 O   0  0  0  0  0  0  0  0  0  0  0  0
   -0.8464    1.0109   -0.0002 N   0  0  0  0  0  0  0  0  0  0  0  0
    1.3711    0.2616   -0.0003 N   0  0  0  0  0  0  0  0  0  0  0  0
    0.4980    1.3545   -0.0003 C   0  0  0  0  0  0  0  0  0  0  0  0
   -1.2824   -0.2834    0.0001 C   0  0  0  0  0  0  0  0  0  0  0  0
    1.0069   -1.0790   -0.0001 C   0  0  0  0  0  0  0  0  0  0  0  0
   -0.4549   -1.3302    0.0003 C   0  0  0  0  0  0  0  0  0  0  0  0
   -1.5464    1.7464   -0.0002 H   0  0  0  0  0  0  0  0  0  0  0  0
    2.3658    0.4690   -0.0003 H   0  0  0  0  0  0  0  0  0  0  0  0
   -0.7998   -2.3573    0.0005 H   0  0  0  0  0  0  0  0  0  0  0  0
  1  7  1  0  0  0  0
  2  6  2  0  0  0  0
  3  8  2  0  0  0  0
  4  6  1  0  0  0  0
  4  7  1  0  0  0  0
  4 10  1  0  0  0  0
  5  6  1  0  0  0  0
  5  8  1  0  0  0  0
  5 11  1  0  0  0  0
  7  9  2  0  0  0  0
  8  9  1  0  0  0  0
  9 12  1  0  0  0  0
M  END
> <PUBCHEM_COMPOUND_CID>
73272

> <PUBCHEM_CONFORMER_RMSD>
0.4

> <PUBCHEM_CONFORMER_DIVERSEORDER>
1

> <PUBCHEM_MMFF94_PARTIAL_CHARGES>
12
1 -0.14
10 0.37
11 0.37
12 0.15
2 -0.57
3 -0.57
4 -0.54
5 -0.49
6 0.69
7 0.25
8 0.62
9 -0.14

> <PUBCHEM_EFFECTIVE_ROTOR_COUNT>
0

> <PUBCHEM_PHARMACOPHORE_FEATURES>
5
1 2 acceptor
1 3 acceptor
1 4 donor
1 5 donor
6 4 5 6 7 8 9 rings

> <PUBCHEM_HEAVY_ATOM_COUNT>
9

> <PUBCHEM_ATOM_DEF_STEREO_COUNT>
0

> <PUBCHEM_ATOM_UDEF_STEREO_COUNT>
0

> <PUBCHEM_BOND_DEF_STEREO_COUNT>
0

> <PUBCHEM_BOND_UDEF_STEREO_COUNT>
0

> <PUBCHEM_ISOTOPIC_ATOM_COUNT>
0

> <PUBCHEM_COMPONENT_COUNT>
1

> <PUBCHEM_CACTVS_TAUTO_COUNT>
6

> <PUBCHEM_CONFORMER_ID>
00011E3800000001

> <PUBCHEM_MMFF94_ENERGY>
14.4438

> <PUBCHEM_FEATURE_SELFOVERLAP>
25.414

> <PUBCHEM_SHAPE_FINGERPRINT>
18185500 45 18339362959306416287
21040471 1 17618223248592822497
23552423 10 17756720632568172446
23552449 1 17978506429904366230
241688 4 18194683652993073091
2748010 2 18267296534746922271
29004967 10 18408604751457956387

> <PUBCHEM_SHAPE_MULTIPOLES>
165.38
2.77
2.23
0.58
2.4
0.31
0
-0.2
0
-1.56
0
0.06
-0.02
0

> <PUBCHEM_SHAPE_SELFOVERLAP>
332.922

> <PUBCHEM_SHAPE_VOLUME>
97.1

> <PUBCHEM_COORDINATE_TYPE>
2
5
10

$$$$
