84440
  -OEChem-06212212533D

 30 30  0     0  0  0  0  0  0999 V2000
   -0.0630    0.2761    0.7967 O   0  0  0  0  0  0  0  0  0  0  0  0
    2.0685    1.1224    0.2328 O   0  0  0  0  0  0  0  0  0  0  0  0
    1.4365   -1.0701   -0.4695 O   0  0  0  0  0  0  0  0  0  0  0  0
    0.9888    0.2629   -0.1838 C   0  0  0  0  0  0  0  0  0  0  0  0
   -1.3606    0.2116    0.3667 C   0  0  0  0  0  0  0  0  0  0  0  0
    3.1063    1.2309   -0.7334 C   0  0  0  0  0  0  0  0  0  0  0  0
    1.9472   -1.7301    0.6816 C   0  0  0  0  0  0  0  0  0  0  0  0
   -1.6642   -0.4616   -0.8122 C   0  0  0  0  0  0  0  0  0  0  0  0
   -2.3652    0.8203    1.1121 C   0  0  0  0  0  0  0  0  0  0  0  0
    4.1834    2.1506   -0.1990 C   0  0  0  0  0  0  0  0  0  0  0  0
    2.3949   -3.1232    0.2932 C   0  0  0  0  0  0  0  0  0  0  0  0
   -2.9866   -0.5266   -1.2508 C   0  0  0  0  0  0  0  0  0  0  0  0
   -3.6877    0.7551    0.6734 C   0  0  0  0  0  0  0  0  0  0  0  0
   -3.9984    0.0817   -0.5080 C   0  0  0  0  0  0  0  0  0  0  0  0
    0.6208    0.6953   -1.1230 H   0  0  0  0  0  0  0  0  0  0  0  0
    3.5410    0.2473   -0.9395 H   0  0  0  0  0  0  0  0  0  0  0  0
    2.6998    1.6403   -1.6646 H   0  0  0  0  0  0  0  0  0  0  0  0
    2.7980   -1.1769    1.0928 H   0  0  0  0  0  0  0  0  0  0  0  0
    1.1702   -1.8058    1.4497 H   0  0  0  0  0  0  0  0  0  0  0  0
   -0.9147   -0.9699   -1.4093 H   0  0  0  0  0  0  0  0  0  0  0  0
   -2.1277    1.3459    2.0326 H   0  0  0  0  0  0  0  0  0  0  0  0
    4.9977    2.2602   -0.9208 H   0  0  0  0  0  0  0  0  0  0  0  0
    3.7709    3.1407    0.0213 H   0  0  0  0  0  0  0  0  0  0  0  0
    4.5927    1.7604    0.7387 H   0  0  0  0  0  0  0  0  0  0  0  0
    2.7921   -3.6620    1.1580 H   0  0  0  0  0  0  0  0  0  0  0  0
    1.5595   -3.6939   -0.1256 H   0  0  0  0  0  0  0  0  0  0  0  0
    3.1687   -3.0773   -0.4803 H   0  0  0  0  0  0  0  0  0  0  0  0
   -3.2301   -1.0556   -2.1676 H   0  0  0  0  0  0  0  0  0  0  0  0
   -4.4757    1.2285    1.2519 H   0  0  0  0  0  0  0  0  0  0  0  0
   -5.0284    0.0298   -0.8486 H   0  0  0  0  0  0  0  0  0  0  0  0
  1  4  1  0  0  0  0
  1  5  1  0  0  0  0
  2  4  1  0  0  0  0
  2  6  1  0  0  0  0
  3  4  1  0  0  0  0
  3  7  1  0  0  0  0
  4 15  1  0  0  0  0
  5  8  2  0  0  0  0
  5  9  1  0  0  0  0
  6 10  1  0  0  0  0
  6 16  1  0  0  0  0
  6 17  1  0  0  0  0
  7 11  1  0  0  0  0
  7 18  1  0  0  0  0
  7 19  1  0  0  0  0
  8 12  1  0  0  0  0
  8 20  1  0  0  0  0
  9 13  2  0  0  0  0
  9 21  1  0  0  0  0
 10 22  1  0  0  0  0
 10 23  1  0  0  0  0
 10 24  1  0  0  0  0
 11 25  1  0  0  0  0
 11 26  1  0  0  0  0
 11 27  1  0  0  0  0
 12 14  2  0  0  0  0
 12 28  1  0  0  0  0
 13 14  1  0  0  0  0
 13 29  1  0  0  0  0
 14 30  1  0  0  0  0
M  END
> <PUBCHEM_COMPOUND_CID>
84440

> <PUBCHEM_CONFORMER_RMSD>
0.6

> <PUBCHEM_CONFORMER_DIVERSEORDER>
1
80
54
23
27
49
16
76
86
48
2
45
53
17
70
84
20
78
7
83
62
96
35
61
18
40
28
63
79
59
98
93
24
85
90
94
97
33
60
92
46
55
95
69
88
50
32
31
66
10
26
38
68
15
34
71
13
87
57
43
75
9
25
65
67
11
6
39
52
51
21
42
64
14
30
56
72
5
91
47
58
19
29
37
81
82
44
22
89
36
77
12
74
8
41
73
3
4

> <PUBCHEM_MMFF94_PARTIAL_CHARGES>
17
1 -0.36
12 -0.15
13 -0.15
14 -0.15
2 -0.56
20 0.15
21 0.15
28 0.15
29 0.15
3 -0.56
30 0.15
4 0.84
5 0.08
6 0.28
7 0.28
8 -0.15
9 -0.15

> <PUBCHEM_EFFECTIVE_ROTOR_COUNT>
6

> <PUBCHEM_PHARMACOPHORE_FEATURES>
4
1 1 acceptor
1 2 acceptor
1 3 acceptor
6 5 8 9 12 13 14 rings

> <PUBCHEM_HEAVY_ATOM_COUNT>
14

> <PUBCHEM_ATOM_DEF_STEREO_COUNT>
0

> <PUBCHEM_ATOM_UDEF_STEREO_COUNT>
0

> <PUBCHEM_BOND_DEF_STEREO_COUNT>
0

> <PUBCHEM_BOND_UDEF_STEREO_COUNT>
0

> <PUBCHEM_ISOTOPIC_ATOM_COUNT>
0

> <PUBCHEM_COMPONENT_COUNT>
1

> <PUBCHEM_CACTVS_TAUTO_COUNT>
1

> <PUBCHEM_CONFORMER_ID>
000149D800000001

> <PUBCHEM_MMFF94_ENERGY>
35.1474

> <PUBCHEM_FEATURE_SELFOVERLAP>
20.405

> <PUBCHEM_SHAPE_FINGERPRINT>
12119455 92 17895746426453643716
12932764 1 17917989477800415417
13760787 19 18272368702746415039
15279307 12 18343018925621114335
15669948 3 17561075926092119719
15775835 57 18272093815764447477
1813 80 17981895138185841046
18186145 218 17241330166464696033
19026448 4 17822013073810597937
19422 9 18343018848886481859
19786989 88 18113613508155361170
201361 129 18412833468930907696
20279233 1 16660361485191056457
204376 136 18189057667217101828
20645464 45 16660361510992722985
20645476 183 18201154451285677295
20645477 70 18261947454092104391
20671657 53 18046062657977849826
21499 59 18263646323994804476
21524375 3 18270682099133129652
2255824 54 18338798910158242058
232386 152 17274523344117397999
23402539 116 14346064395912666219
23419403 2 14205562069532847250
23532345 1 18334296469950092673
23532345 88 18337668599082057540
23557571 272 16805334296584078501
23598291 2 18201442411204068573
474 4 18335988678612257028
53748568 43 18202567301809382013
57096353 35 18131061684289357549
603831 33 18059284452783942837
6049 1 17313951796898148631
633830 44 18270132313201859772
7364860 26 18410857616729472978
7615 1 18130500825926954377
77492 1 18131067100221901459
8030462 33 18130783477766765601
81228 2 17110990549267664898
81539 233 18186802508807283526
88987 49 16773788165389970135

> <PUBCHEM_SHAPE_MULTIPOLES>
270.51
7.51
2.31
1.06
0.64
1.69
-0.04
-2.9
-0.77
-4.07
0.23
0.66
-0.01
-1.05

> <PUBCHEM_SHAPE_SELFOVERLAP>
535.614

> <PUBCHEM_SHAPE_VOLUME>
159.6

> <PUBCHEM_COORDINATE_TYPE>
2
5
10

$$$$
