30209
  -OEChem-06212212563D

 23 22  0     0  0  0  0  0  0999 V2000
    2.0977    0.6238    0.0068 O   0  0  0  0  0  0  0  0  0  0  0  0
    3.2739   -1.2524   -0.0231 O   0  5  0  0  0  0  0  0  0  0  0  0
    4.3703    0.6890   -0.0001 O   0  0  0  0  0  0  0  0  0  0  0  0
    3.3644   -0.0242   -0.0066 N   0  3  0  0  0  0  0  0  0  0  0  0
   -1.5209   -0.3870    0.0220 C   0  0  0  0  0  0  0  0  0  0  0  0
   -2.8486    0.3757    0.0049 C   0  0  0  0  0  0  0  0  0  0  0  0
   -0.2957    0.5257    0.0142 C   0  0  0  0  0  0  0  0  0  0  0  0
   -4.0748   -0.5374    0.0376 C   0  0  0  0  0  0  0  0  0  0  0  0
    0.9986   -0.2768   -0.0015 C   0  0  0  0  0  0  0  0  0  0  0  0
   -5.3648    0.2636   -0.0542 C   0  0  0  0  0  0  0  0  0  0  0  0
   -1.4824   -1.0533   -0.8488 H   0  0  0  0  0  0  0  0  0  0  0  0
   -1.4882   -1.0277    0.9120 H   0  0  0  0  0  0  0  0  0  0  0  0
   -2.8834    1.0570    0.8642 H   0  0  0  0  0  0  0  0  0  0  0  0
   -2.8861    1.0013   -0.8957 H   0  0  0  0  0  0  0  0  0  0  0  0
   -0.3087    1.1836    0.8919 H   0  0  0  0  0  0  0  0  0  0  0  0
   -0.3233    1.1893   -0.8591 H   0  0  0  0  0  0  0  0  0  0  0  0
   -4.0321   -1.2461   -0.7974 H   0  0  0  0  0  0  0  0  0  0  0  0
   -4.0754   -1.1247    0.9630 H   0  0  0  0  0  0  0  0  0  0  0  0
    1.0300   -0.9188    0.8880 H   0  0  0  0  0  0  0  0  0  0  0  0
    1.0231   -0.8954   -0.9075 H   0  0  0  0  0  0  0  0  0  0  0  0
   -6.2295   -0.4068   -0.0268 H   0  0  0  0  0  0  0  0  0  0  0  0
   -5.4515    0.9646    0.7822 H   0  0  0  0  0  0  0  0  0  0  0  0
   -5.4072    0.8344   -0.9873 H   0  0  0  0  0  0  0  0  0  0  0  0
  1  4  1  0  0  0  0
  1  9  1  0  0  0  0
  2  4  1  0  0  0  0
  3  4  2  0  0  0  0
  5  6  1  0  0  0  0
  5  7  1  0  0  0  0
  5 11  1  0  0  0  0
  5 12  1  0  0  0  0
  6  8  1  0  0  0  0
  6 13  1  0  0  0  0
  6 14  1  0  0  0  0
  7  9  1  0  0  0  0
  7 15  1  0  0  0  0
  7 16  1  0  0  0  0
  8 10  1  0  0  0  0
  8 17  1  0  0  0  0
  8 18  1  0  0  0  0
  9 19  1  0  0  0  0
  9 20  1  0  0  0  0
 10 21  1  0  0  0  0
 10 22  1  0  0  0  0
 10 23  1  0  0  0  0
M  CHG  2   2  -1   4   1
M  END
> <PUBCHEM_COMPOUND_CID>
30209

> <PUBCHEM_CONFORMER_RMSD>
0.6

> <PUBCHEM_CONFORMER_DIVERSEORDER>
1
76
10
70
121
122
126
3
31
55
113
6
72
8
124
71
123
4
74
117
22
134
109
66
5
39
99
87
35
43
82
110
115
14
54
2
75
79
16
116
48
77
47
136
108
38
57
52
44
34
46
7
18
132
100
21
51
56
68
78
83
36
13
17
53
19
62
130
118
90
103
92
64
20
128
98
73
63
32
107
131
11
86
129
120
89
65
135
40
133
84
94
125
80
106
85
12
127
9
37
101
59
88
15
95
91
27
102
33
114
61
30
104
58
69
45
25
67
119
60
96
42
105
41
49
112
50
97
81
24
29
23
111
26
93
28

> <PUBCHEM_MMFF94_PARTIAL_CHARGES>
5
1 -0.27
2 -0.52
3 -0.52
4 1.03
9 0.28

> <PUBCHEM_EFFECTIVE_ROTOR_COUNT>
6

> <PUBCHEM_PHARMACOPHORE_FEATURES>
4
1 10 hydrophobe
1 2 acceptor
1 3 acceptor
4 5 6 7 8 hydrophobe

> <PUBCHEM_HEAVY_ATOM_COUNT>
10

> <PUBCHEM_ATOM_DEF_STEREO_COUNT>
0

> <PUBCHEM_ATOM_UDEF_STEREO_COUNT>
0

> <PUBCHEM_BOND_DEF_STEREO_COUNT>
0

> <PUBCHEM_BOND_UDEF_STEREO_COUNT>
0

> <PUBCHEM_ISOTOPIC_ATOM_COUNT>
0

> <PUBCHEM_COMPONENT_COUNT>
1

> <PUBCHEM_CACTVS_TAUTO_COUNT>
1

> <PUBCHEM_CONFORMER_ID>
0000760100000001

> <PUBCHEM_MMFF94_ENERGY>
8.7795

> <PUBCHEM_FEATURE_SELFOVERLAP>
20.368

> <PUBCHEM_SHAPE_FINGERPRINT>
11062470 55 18342739624076748485
14123238 8 17989487428999001805
14325111 11 18410855442953573866
15501527 16 18335702681805246885
17834072 33 18270961361979889973
17834076 25 18407761452009560012
18342897 14 18060139842887089025
190213 19 17894633655923863911
20645477 70 18338797810588631166
20719005 15 18410855455849025251
22485316 2 18410853270027390575
23402539 116 17989481914614610213
366044 4 18261110786004777947
42788 4 18410292514881229389

> <PUBCHEM_SHAPE_MULTIPOLES>
183.21
10.52
0.89
0.58
2.65
0.11
0
-0.25
-0.12
-0.38
0
0.14
0
0.03

> <PUBCHEM_SHAPE_SELFOVERLAP>
328.257

> <PUBCHEM_SHAPE_VOLUME>
119.3

> <PUBCHEM_COORDINATE_TYPE>
2
5
10

$$$$
