223106
  -OEChem-06212212533D

 18 18  0     0  0  0  0  0  0999 V2000
   -3.5996   -0.3083    0.0013 F   0  0  0  0  0  0  0  0  0  0  0  0
   -2.6588    1.3194    1.0830 F   0  0  0  0  0  0  0  0  0  0  0  0
   -2.6411    1.3090   -1.0915 F   0  0  0  0  0  0  0  0  0  0  0  0
    3.5995   -0.3084    0.0012 F   0  0  0  0  0  0  0  0  0  0  0  0
    2.6606    1.3184   -1.0833 F   0  0  0  0  0  0  0  0  0  0  0  0
    2.6395    1.3099    1.0912 F   0  0  0  0  0  0  0  0  0  0  0  0
   -1.2081   -0.2433   -0.0006 C   0  0  0  0  0  0  0  0  0  0  0  0
    1.2080   -0.2432   -0.0006 C   0  0  0  0  0  0  0  0  0  0  0  0
   -0.0001    0.4543   -0.0009 C   0  0  0  0  0  0  0  0  0  0  0  0
   -1.2079   -1.6383    0.0000 C   0  0  0  0  0  0  0  0  0  0  0  0
    1.2079   -1.6382    0.0000 C   0  0  0  0  0  0  0  0  0  0  0  0
    0.0000   -2.3357    0.0002 C   0  0  0  0  0  0  0  0  0  0  0  0
   -2.4999    0.5021    0.0002 C   0  0  0  0  0  0  0  0  0  0  0  0
    2.5000    0.5021   -0.0001 C   0  0  0  0  0  0  0  0  0  0  0  0
   -0.0001    1.5417   -0.0010 H   0  0  0  0  0  0  0  0  0  0  0  0
   -2.1384   -2.1993    0.0003 H   0  0  0  0  0  0  0  0  0  0  0  0
    2.1383   -2.1992    0.0004 H   0  0  0  0  0  0  0  0  0  0  0  0
    0.0001   -3.4218    0.0007 H   0  0  0  0  0  0  0  0  0  0  0  0
  1 13  1  0  0  0  0
  2 13  1  0  0  0  0
  3 13  1  0  0  0  0
  4 14  1  0  0  0  0
  5 14  1  0  0  0  0
  6 14  1  0  0  0  0
  7  9  2  0  0  0  0
  7 10  1  0  0  0  0
  7 13  1  0  0  0  0
  8  9  1  0  0  0  0
  8 11  2  0  0  0  0
  8 14  1  0  0  0  0
  9 15  1  0  0  0  0
 10 12  2  0  0  0  0
 10 16  1  0  0  0  0
 11 12  1  0  0  0  0
 11 17  1  0  0  0  0
 12 18  1  0  0  0  0
M  END
> <PUBCHEM_COMPOUND_CID>
223106

> <PUBCHEM_CONFORMER_RMSD>
0.6

> <PUBCHEM_CONFORMER_DIVERSEORDER>
1

> <PUBCHEM_MMFF94_PARTIAL_CHARGES>
18
1 -0.34
10 -0.15
11 -0.15
12 -0.15
13 1.16
14 1.16
15 0.15
16 0.15
17 0.15
18 0.15
2 -0.34
3 -0.34
4 -0.34
5 -0.34
6 -0.34
7 -0.14
8 -0.14
9 -0.15

> <PUBCHEM_EFFECTIVE_ROTOR_COUNT>
2

> <PUBCHEM_PHARMACOPHORE_FEATURES>
1
6 7 8 9 10 11 12 rings

> <PUBCHEM_HEAVY_ATOM_COUNT>
14

> <PUBCHEM_ATOM_DEF_STEREO_COUNT>
0

> <PUBCHEM_ATOM_UDEF_STEREO_COUNT>
0

> <PUBCHEM_BOND_DEF_STEREO_COUNT>
0

> <PUBCHEM_BOND_UDEF_STEREO_COUNT>
0

> <PUBCHEM_ISOTOPIC_ATOM_COUNT>
0

> <PUBCHEM_COMPONENT_COUNT>
1

> <PUBCHEM_CACTVS_TAUTO_COUNT>
1

> <PUBCHEM_CONFORMER_ID>
0003678200000001

> <PUBCHEM_MMFF94_ENERGY>
19.1423

> <PUBCHEM_FEATURE_SELFOVERLAP>
5.074

> <PUBCHEM_SHAPE_FINGERPRINT>
1 1 18339921511271589334
11206711 2 18196647612884012175
13380535 21 18338531784276805767
13380535 76 18410573989447035558
14325111 11 18410856559650391043
14897335 6 18411973667812231638
15775835 57 18410577287981314752
16945 1 18411136930815322826
18186145 218 18343305833810289700
19107657 9 18339093626128599781
20510252 161 18125724736173014530
21028194 46 18410011039498349866
21040471 1 18410856594237197090
21524375 3 18410854364911988522
23402539 116 18130213930527313061
23463225 33 18333729096359769554
23559900 14 18201445801120285804
25 1 18341899532721281862
2748010 2 18410301310573792830
305870 269 18188483571370022722
63268167 104 18268709411636685987
6333449 129 18270114737715447791
7364860 26 18127412245998551366
81228 2 17906166609260278347

> <PUBCHEM_SHAPE_MULTIPOLES>
244.47
5.05
1.91
0.82
0
0.87
0
-2.21
0
0
0
0
-0.33
0

> <PUBCHEM_SHAPE_SELFOVERLAP>
520.398

> <PUBCHEM_SHAPE_VOLUME>
137.6

> <PUBCHEM_COORDINATE_TYPE>
2
5
10

$$$$
