8499
  -OEChem-06212212543D

 22 22  0     0  0  0  0  0  0999 V2000
    3.4565   -0.1896    0.0012 O   0  0  0  0  0  0  0  0  0  0  0  0
   -2.6707    0.9867    0.0001 O   0  0  0  0  0  0  0  0  0  0  0  0
   -2.8320   -1.3096    0.0000 O   0  0  0  0  0  0  0  0  0  0  0  0
   -0.6936   -0.2549   -0.0006 C   0  0  0  0  0  0  0  0  0  0  0  0
    2.0958   -0.2109   -0.0003 C   0  0  0  0  0  0  0  0  0  0  0  0
    0.0226   -1.4517    0.0000 C   0  0  0  0  0  0  0  0  0  0  0  0
   -0.0154    0.9640   -0.0011 C   0  0  0  0  0  0  0  0  0  0  0  0
    1.4173   -1.4297    0.0002 C   0  0  0  0  0  0  0  0  0  0  0  0
    1.3794    0.9861   -0.0009 C   0  0  0  0  0  0  0  0  0  0  0  0
   -2.1478   -0.2776   -0.0005 C   0  0  0  0  0  0  0  0  0  0  0  0
    4.0861    1.0908    0.0005 C   0  0  0  0  0  0  0  0  0  0  0  0
   -4.0982    1.0964    0.0015 C   0  0  0  0  0  0  0  0  0  0  0  0
   -0.4861   -2.4122    0.0005 H   0  0  0  0  0  0  0  0  0  0  0  0
   -0.5321    1.9197   -0.0015 H   0  0  0  0  0  0  0  0  0  0  0  0
    1.9701   -2.3652    0.0010 H   0  0  0  0  0  0  0  0  0  0  0  0
    1.8429    1.9668   -0.0011 H   0  0  0  0  0  0  0  0  0  0  0  0
    3.8515    1.6551    0.9094 H   0  0  0  0  0  0  0  0  0  0  0  0
    3.8524    1.6538   -0.9096 H   0  0  0  0  0  0  0  0  0  0  0  0
    5.1676    0.9193    0.0011 H   0  0  0  0  0  0  0  0  0  0  0  0
   -4.3581    2.1582    0.0018 H   0  0  0  0  0  0  0  0  0  0  0  0
   -4.5110    0.6317    0.9018 H   0  0  0  0  0  0  0  0  0  0  0  0
   -4.5127    0.6320   -0.8981 H   0  0  0  0  0  0  0  0  0  0  0  0
  1  5  1  0  0  0  0
  1 11  1  0  0  0  0
  2 10  1  0  0  0  0
  2 12  1  0  0  0  0
  3 10  2  0  0  0  0
  4  6  2  0  0  0  0
  4  7  1  0  0  0  0
  4 10  1  0  0  0  0
  5  8  2  0  0  0  0
  5  9  1  0  0  0  0
  6  8  1  0  0  0  0
  6 13  1  0  0  0  0
  7  9  2  0  0  0  0
  7 14  1  0  0  0  0
  8 15  1  0  0  0  0
  9 16  1  0  0  0  0
 11 17  1  0  0  0  0
 11 18  1  0  0  0  0
 11 19  1  0  0  0  0
 12 20  1  0  0  0  0
 12 21  1  0  0  0  0
 12 22  1  0  0  0  0
M  END
> <PUBCHEM_COMPOUND_CID>
8499

> <PUBCHEM_CONFORMER_RMSD>
0.6

> <PUBCHEM_CONFORMER_DIVERSEORDER>
1
3
2
4

> <PUBCHEM_MMFF94_PARTIAL_CHARGES>
16
1 -0.36
10 0.63
11 0.28
12 0.28
13 0.15
14 0.15
15 0.15
16 0.15
2 -0.43
3 -0.57
4 0.09
5 0.08
6 -0.15
7 -0.15
8 -0.15
9 -0.15

> <PUBCHEM_EFFECTIVE_ROTOR_COUNT>
3

> <PUBCHEM_PHARMACOPHORE_FEATURES>
3
1 1 acceptor
1 3 acceptor
6 4 5 6 7 8 9 rings

> <PUBCHEM_HEAVY_ATOM_COUNT>
12

> <PUBCHEM_ATOM_DEF_STEREO_COUNT>
0

> <PUBCHEM_ATOM_UDEF_STEREO_COUNT>
0

> <PUBCHEM_BOND_DEF_STEREO_COUNT>
0

> <PUBCHEM_BOND_UDEF_STEREO_COUNT>
0

> <PUBCHEM_ISOTOPIC_ATOM_COUNT>
0

> <PUBCHEM_COMPONENT_COUNT>
1

> <PUBCHEM_CACTVS_TAUTO_COUNT>
1

> <PUBCHEM_CONFORMER_ID>
0000213300000001

> <PUBCHEM_MMFF94_ENERGY>
42.1605

> <PUBCHEM_FEATURE_SELFOVERLAP>
15.223

> <PUBCHEM_SHAPE_FINGERPRINT>
10219947 1 18333452023597826300
10608611 8 18411134748972150857
11062470 55 18412544301451414064
11132069 177 18410289211882697192
11471102 20 18410852118675358117
11543360 7 15625933291968657272
12932764 1 17240756255353990495
13380535 76 18410011014156106283
14325111 11 18410575102080318434
14897335 6 18411416181426138191
14993402 34 15769772463828745948
15775835 57 18410576179900857901
16945 1 18338516343874170694
18186145 218 18334574629475606812
193761 8 17690279305359200772
20645477 70 18200313208452077599
23235685 24 18410005542177555304
23402539 116 18273206517774580500
23402655 69 18270669867335393741
23463225 33 18334572413330634034
23559900 14 18272653459547579516
2748010 2 18195526115128516092
3312278 4 18341897393917122521
449060 50 18408889516611672245
528886 8 18411412899680785987
53812653 166 18341608222280045584
7364860 26 18196934375171484414

> <PUBCHEM_SHAPE_MULTIPOLES>
229.35
6.54
1.54
0.59
0.59
0.25
0
-2.55
0
0.12
0
-0.02
0
0

> <PUBCHEM_SHAPE_SELFOVERLAP>
474.153

> <PUBCHEM_SHAPE_VOLUME>
132.2

> <PUBCHEM_COORDINATE_TYPE>
2
5
10

$$$$
