69027
  -OEChem-06212212573D

 20 19  0     0  0  0  0  0  0999 V2000
    1.3456    0.6709    0.0005 O   0  0  0  0  0  0  0  0  0  0  0  0
    0.7997   -1.5638   -0.0003 O   0  0  0  0  0  0  0  0  0  0  0  0
   -0.9731    0.1183    0.0000 C   0  0  0  0  0  0  0  0  0  0  0  0
   -1.2206    0.9693   -1.2526 C   0  0  0  0  0  0  0  0  0  0  0  0
   -1.9314   -1.0837   -0.0156 C   0  0  0  0  0  0  0  0  0  0  0  0
   -1.2304    0.9439    1.2677 C   0  0  0  0  0  0  0  0  0  0  0  0
    0.4750   -0.3825    0.0003 C   0  0  0  0  0  0  0  0  0  0  0  0
    2.7350    0.3276    0.0000 C   0  0  0  0  0  0  0  0  0  0  0  0
   -0.9853    0.4068   -2.1634 H   0  0  0  0  0  0  0  0  0  0  0  0
   -2.2664    1.2903   -1.3138 H   0  0  0  0  0  0  0  0  0  0  0  0
   -0.5980    1.8710   -1.2583 H   0  0  0  0  0  0  0  0  0  0  0  0
   -1.7735   -1.7061   -0.9041 H   0  0  0  0  0  0  0  0  0  0  0  0
   -2.9778   -0.7586   -0.0170 H   0  0  0  0  0  0  0  0  0  0  0  0
   -1.7813   -1.7231    0.8621 H   0  0  0  0  0  0  0  0  0  0  0  0
   -0.6045    1.8429    1.2979 H   0  0  0  0  0  0  0  0  0  0  0  0
   -2.2757    1.2670    1.3254 H   0  0  0  0  0  0  0  0  0  0  0  0
   -1.0054    0.3619    2.1688 H   0  0  0  0  0  0  0  0  0  0  0  0
    2.9840   -0.2417   -0.9006 H   0  0  0  0  0  0  0  0  0  0  0  0
    2.9844   -0.2424    0.9001 H   0  0  0  0  0  0  0  0  0  0  0  0
    3.3141    1.2548    0.0002 H   0  0  0  0  0  0  0  0  0  0  0  0
  1  7  1  0  0  0  0
  1  8  1  0  0  0  0
  2  7  2  0  0  0  0
  3  4  1  0  0  0  0
  3  5  1  0  0  0  0
  3  6  1  0  0  0  0
  3  7  1  0  0  0  0
  4  9  1  0  0  0  0
  4 10  1  0  0  0  0
  4 11  1  0  0  0  0
  5 12  1  0  0  0  0
  5 13  1  0  0  0  0
  5 14  1  0  0  0  0
  6 15  1  0  0  0  0
  6 16  1  0  0  0  0
  6 17  1  0  0  0  0
  8 18  1  0  0  0  0
  8 19  1  0  0  0  0
  8 20  1  0  0  0  0
M  END
> <PUBCHEM_COMPOUND_CID>
69027

> <PUBCHEM_CONFORMER_RMSD>
0.4

> <PUBCHEM_CONFORMER_DIVERSEORDER>
1
2

> <PUBCHEM_MMFF94_PARTIAL_CHARGES>
5
1 -0.43
2 -0.57
3 0.06
7 0.66
8 0.28

> <PUBCHEM_EFFECTIVE_ROTOR_COUNT>
2

> <PUBCHEM_PHARMACOPHORE_FEATURES>
2
1 2 acceptor
4 3 4 5 6 hydrophobe

> <PUBCHEM_HEAVY_ATOM_COUNT>
8

> <PUBCHEM_ATOM_DEF_STEREO_COUNT>
0

> <PUBCHEM_ATOM_UDEF_STEREO_COUNT>
0

> <PUBCHEM_BOND_DEF_STEREO_COUNT>
0

> <PUBCHEM_BOND_UDEF_STEREO_COUNT>
0

> <PUBCHEM_ISOTOPIC_ATOM_COUNT>
0

> <PUBCHEM_COMPONENT_COUNT>
1

> <PUBCHEM_CACTVS_TAUTO_COUNT>
1

> <PUBCHEM_CONFORMER_ID>
00010DA300000001

> <PUBCHEM_MMFF94_ENERGY>
16.2105

> <PUBCHEM_FEATURE_SELFOVERLAP>
10.148

> <PUBCHEM_SHAPE_FINGERPRINT>
16714656 1 18190460643705847990
21040471 1 18265048024878393525
24536 1 18058722477503423171
29004967 10 17822300140449736251
369184 2 16081082701406965408
5084963 1 18334856160191978984
5943 1 13007196392139994625

> <PUBCHEM_SHAPE_MULTIPOLES>
152.9
2.89
1.31
1.02
1.95
0.31
-0.01
-0.11
0
-0.29
0.01
-0.51
-0.41
0

> <PUBCHEM_SHAPE_SELFOVERLAP>
283.982

> <PUBCHEM_SHAPE_VOLUME>
98.1

> <PUBCHEM_COORDINATE_TYPE>
2
5
10

$$$$
