84179
  -OEChem-06212212553D

 25 25  0     0  0  0  0  0  0999 V2000
   -1.9031   -1.7889    0.0370 O   0  0  0  0  0  0  0  0  0  0  0  0
   -2.4259    0.4891   -0.0095 N   0  0  0  0  0  0  0  0  0  0  0  0
   -0.1094   -0.3525    0.0103 C   0  0  0  0  0  0  0  0  0  0  0  0
   -1.5416   -0.6048    0.0186 C   0  0  0  0  0  0  0  0  0  0  0  0
    2.6386    0.1290   -0.0047 C   0  0  0  0  0  0  0  0  0  0  0  0
    0.5785   -0.1994    1.2141 C   0  0  0  0  0  0  0  0  0  0  0  0
    0.5769   -0.2648   -1.2009 C   0  0  0  0  0  0  0  0  0  0  0  0
    1.9525    0.0412    1.2066 C   0  0  0  0  0  0  0  0  0  0  0  0
    1.9508   -0.0241   -1.2084 C   0  0  0  0  0  0  0  0  0  0  0  0
   -3.8719    0.3170   -0.0193 C   0  0  0  0  0  0  0  0  0  0  0  0
   -1.9530    1.8715   -0.0306 C   0  0  0  0  0  0  0  0  0  0  0  0
    4.1076    0.3866   -0.0130 C   0  0  0  0  0  0  0  0  0  0  0  0
    0.0539   -0.2661    2.1637 H   0  0  0  0  0  0  0  0  0  0  0  0
    0.0509   -0.3828   -2.1448 H   0  0  0  0  0  0  0  0  0  0  0  0
    2.4774    0.1571    2.1511 H   0  0  0  0  0  0  0  0  0  0  0  0
    2.4744    0.0404   -2.1585 H   0  0  0  0  0  0  0  0  0  0  0  0
   -4.2928    0.8077    0.8627 H   0  0  0  0  0  0  0  0  0  0  0  0
   -4.1412   -0.7420   -0.0026 H   0  0  0  0  0  0  0  0  0  0  0  0
   -4.2768    0.7753   -0.9261 H   0  0  0  0  0  0  0  0  0  0  0  0
   -2.3366    2.3527   -0.9356 H   0  0  0  0  0  0  0  0  0  0  0  0
   -0.8681    1.9725   -0.0206 H   0  0  0  0  0  0  0  0  0  0  0  0
   -2.3561    2.3867    0.8468 H   0  0  0  0  0  0  0  0  0  0  0  0
    4.4059    0.9441   -0.9074 H   0  0  0  0  0  0  0  0  0  0  0  0
    4.4087    0.9862    0.8529 H   0  0  0  0  0  0  0  0  0  0  0  0
    4.6552   -0.5608    0.0090 H   0  0  0  0  0  0  0  0  0  0  0  0
  1  4  2  0  0  0  0
  2  4  1  0  0  0  0
  2 10  1  0  0  0  0
  2 11  1  0  0  0  0
  3  4  1  0  0  0  0
  3  6  2  0  0  0  0
  3  7  1  0  0  0  0
  5  8  2  0  0  0  0
  5  9  1  0  0  0  0
  5 12  1  0  0  0  0
  6  8  1  0  0  0  0
  6 13  1  0  0  0  0
  7  9  2  0  0  0  0
  7 14  1  0  0  0  0
  8 15  1  0  0  0  0
  9 16  1  0  0  0  0
 10 17  1  0  0  0  0
 10 18  1  0  0  0  0
 10 19  1  0  0  0  0
 11 20  1  0  0  0  0
 11 21  1  0  0  0  0
 11 22  1  0  0  0  0
 12 23  1  0  0  0  0
 12 24  1  0  0  0  0
 12 25  1  0  0  0  0
M  END
> <PUBCHEM_COMPOUND_CID>
84179

> <PUBCHEM_CONFORMER_RMSD>
0.6

> <PUBCHEM_CONFORMER_DIVERSEORDER>
1

> <PUBCHEM_MMFF94_PARTIAL_CHARGES>
16
1 -0.57
10 0.3
11 0.3
12 0.14
13 0.15
14 0.15
15 0.15
16 0.15
2 -0.66
3 0.09
4 0.54
5 -0.14
6 -0.15
7 -0.15
8 -0.15
9 -0.15

> <PUBCHEM_EFFECTIVE_ROTOR_COUNT>
2

> <PUBCHEM_PHARMACOPHORE_FEATURES>
2
1 1 acceptor
6 3 5 6 7 8 9 rings

> <PUBCHEM_HEAVY_ATOM_COUNT>
12

> <PUBCHEM_ATOM_DEF_STEREO_COUNT>
0

> <PUBCHEM_ATOM_UDEF_STEREO_COUNT>
0

> <PUBCHEM_BOND_DEF_STEREO_COUNT>
0

> <PUBCHEM_BOND_UDEF_STEREO_COUNT>
0

> <PUBCHEM_ISOTOPIC_ATOM_COUNT>
0

> <PUBCHEM_COMPONENT_COUNT>
1

> <PUBCHEM_CACTVS_TAUTO_COUNT>
1

> <PUBCHEM_CONFORMER_ID>
000148D300000001

> <PUBCHEM_MMFF94_ENERGY>
36.5043

> <PUBCHEM_FEATURE_SELFOVERLAP>
10.148

> <PUBCHEM_SHAPE_FINGERPRINT>
10219947 1 15502376716558433940
11031198 65 16988847167789106757
12138202 97 18131062732050387631
124424 183 17917990560200725978
12716758 59 18341058427642744039
12932764 1 17846490443948141102
13581323 91 18334856117036662187
13839132 238 18198624332832344709
14911166 2 15913331321017912644
15775835 57 17967250866883811749
16945 1 18410294709234971265
17844478 74 17703798037024854641
18175812 5 17774718770098791500
18534176 82 18273215326256716631
200 152 16298666187531451891
20201158 50 17275108318588993918
20645477 70 16486984938066886134
21293036 1 16200149902432303756
23402539 116 18341885290873440341
23402655 69 16200153136811943617
23557571 272 18199759200525061916
25 1 16988568944313473217
2748010 2 15552741088172802962
305870 269 18116713997917832435
63268167 104 16732695052078334100
77492 1 17603865619767529451

> <PUBCHEM_SHAPE_MULTIPOLES>
236.1
5.85
1.2
1.11
0.07
0.13
0.01
1.21
-0.07
-1.02
-0.01
0.62
-0.05
0.07

> <PUBCHEM_SHAPE_SELFOVERLAP>
483.392

> <PUBCHEM_SHAPE_VOLUME>
138.4

> <PUBCHEM_COORDINATE_TYPE>
2
5
10

$$$$
