8073
  -OEChem-06212212523D

 14 13  0     0  0  0  0  0  0999 V2000
    0.6609   -0.7864   -0.0021 O   0  0  0  0  0  0  0  0  0  0  0  0
    2.3090    0.8398    0.0011 O   0  0  0  0  0  0  0  0  0  0  0  0
   -1.7119   -0.4721    0.0041 C   0  0  0  0  0  0  0  0  0  0  0  0
   -0.3523    0.2096    0.0041 C   0  0  0  0  0  0  0  0  0  0  0  0
   -2.8485    0.5343   -0.0045 C   0  0  0  0  0  0  0  0  0  0  0  0
    1.9428   -0.3251   -0.0028 C   0  0  0  0  0  0  0  0  0  0  0  0
   -1.7930   -1.1318   -0.8682 H   0  0  0  0  0  0  0  0  0  0  0  0
   -1.7972   -1.1229    0.8826 H   0  0  0  0  0  0  0  0  0  0  0  0
   -0.2489    0.8404   -0.8867 H   0  0  0  0  0  0  0  0  0  0  0  0
   -0.2457    0.8341    0.8990 H   0  0  0  0  0  0  0  0  0  0  0  0
   -2.8041    1.1688   -0.8954 H   0  0  0  0  0  0  0  0  0  0  0  0
   -3.8130    0.0171   -0.0038 H   0  0  0  0  0  0  0  0  0  0  0  0
   -2.8083    1.1791    0.8792 H   0  0  0  0  0  0  0  0  0  0  0  0
    2.6250   -1.1890   -0.0078 H   0  0  0  0  0  0  0  0  0  0  0  0
  1  4  1  0  0  0  0
  1  6  1  0  0  0  0
  2  6  2  0  0  0  0
  3  4  1  0  0  0  0
  3  5  1  0  0  0  0
  3  7  1  0  0  0  0
  3  8  1  0  0  0  0
  4  9  1  0  0  0  0
  4 10  1  0  0  0  0
  5 11  1  0  0  0  0
  5 12  1  0  0  0  0
  5 13  1  0  0  0  0
  6 14  1  0  0  0  0
M  END
> <PUBCHEM_COMPOUND_CID>
8073

> <PUBCHEM_CONFORMER_RMSD>
0.4

> <PUBCHEM_CONFORMER_DIVERSEORDER>
1
14
13
11
12
15
3
2
4
9
10
8
5
6
7

> <PUBCHEM_MMFF94_PARTIAL_CHARGES>
5
1 -0.43
14 0.06
2 -0.57
4 0.28
6 0.66

> <PUBCHEM_EFFECTIVE_ROTOR_COUNT>
3

> <PUBCHEM_PHARMACOPHORE_FEATURES>
2
1 2 acceptor
1 5 hydrophobe

> <PUBCHEM_HEAVY_ATOM_COUNT>
6

> <PUBCHEM_ATOM_DEF_STEREO_COUNT>
0

> <PUBCHEM_ATOM_UDEF_STEREO_COUNT>
0

> <PUBCHEM_BOND_DEF_STEREO_COUNT>
0

> <PUBCHEM_BOND_UDEF_STEREO_COUNT>
0

> <PUBCHEM_ISOTOPIC_ATOM_COUNT>
0

> <PUBCHEM_COMPONENT_COUNT>
1

> <PUBCHEM_CACTVS_TAUTO_COUNT>
1

> <PUBCHEM_CONFORMER_ID>
00001F8900000001

> <PUBCHEM_MMFF94_ENERGY>
2.3899

> <PUBCHEM_FEATURE_SELFOVERLAP>
10.148

> <PUBCHEM_SHAPE_FINGERPRINT>
14390081 3 18342736329826536417
16714656 1 17060620005732543693
20096714 4 18411981398969278440
21040471 1 18338517546707827554
29004967 10 9007059062866509694
5460574 1 9295288339664823075

> <PUBCHEM_SHAPE_MULTIPOLES>
111.74
4.07
0.88
0.58
0.76
0.02
0
0.83
0.01
-0.11
0
0.05
0
0

> <PUBCHEM_SHAPE_SELFOVERLAP>
194.649

> <PUBCHEM_SHAPE_VOLUME>
73.8

> <PUBCHEM_COORDINATE_TYPE>
2
5
10

$$$$
