69720
  -OEChem-06212212523D

 27 27  0     0  0  0  0  0  0999 V2000
    1.4170    1.1853   -0.9644 O   0  0  0  0  0  0  0  0  0  0  0  0
    1.4686   -1.2016   -0.9692 O   0  0  0  0  0  0  0  0  0  0  0  0
    1.6714    0.0489    1.0545 O   0  0  0  0  0  0  0  0  0  0  0  0
    1.0477   -0.0225   -0.2525 C   0  0  0  0  0  0  0  0  0  0  0  0
   -0.4741   -0.0143   -0.0558 C   0  0  0  0  0  0  0  0  0  0  0  0
   -1.2778    0.0197   -1.1697 C   0  0  0  0  0  0  0  0  0  0  0  0
   -0.9687   -0.0416    1.2257 C   0  0  0  0  0  0  0  0  0  0  0  0
   -2.6612    0.0270   -0.9910 C   0  0  0  0  0  0  0  0  0  0  0  0
   -2.3521   -0.0345    1.4043 C   0  0  0  0  0  0  0  0  0  0  0  0
   -3.1982   -0.0001    0.2958 C   0  0  0  0  0  0  0  0  0  0  0  0
    1.0862    2.4098   -0.3167 C   0  0  0  0  0  0  0  0  0  0  0  0
    1.1456   -2.4273   -0.3208 C   0  0  0  0  0  0  0  0  0  0  0  0
    3.0956    0.0512    1.0601 C   0  0  0  0  0  0  0  0  0  0  0  0
   -0.8658    0.0393   -2.1737 H   0  0  0  0  0  0  0  0  0  0  0  0
   -0.3485   -0.0739    2.1143 H   0  0  0  0  0  0  0  0  0  0  0  0
   -3.3201    0.0533   -1.8540 H   0  0  0  0  0  0  0  0  0  0  0  0
   -2.7712   -0.0570    2.4060 H   0  0  0  0  0  0  0  0  0  0  0  0
   -4.2753    0.0050    0.4349 H   0  0  0  0  0  0  0  0  0  0  0  0
    1.5330    3.2219   -0.8979 H   0  0  0  0  0  0  0  0  0  0  0  0
    1.4916    2.4625    0.6973 H   0  0  0  0  0  0  0  0  0  0  0  0
    0.0056    2.5746   -0.3008 H   0  0  0  0  0  0  0  0  0  0  0  0
    1.5048   -2.4484    0.7118 H   0  0  0  0  0  0  0  0  0  0  0  0
    1.6409   -3.2343   -0.8684 H   0  0  0  0  0  0  0  0  0  0  0  0
    0.0695   -2.6186   -0.3518 H   0  0  0  0  0  0  0  0  0  0  0  0
    3.4908    0.9107    0.5121 H   0  0  0  0  0  0  0  0  0  0  0  0
    3.4881   -0.8750    0.6321 H   0  0  0  0  0  0  0  0  0  0  0  0
    3.4303    0.1202    2.0985 H   0  0  0  0  0  0  0  0  0  0  0  0
  1  4  1  0  0  0  0
  1 11  1  0  0  0  0
  2  4  1  0  0  0  0
  2 12  1  0  0  0  0
  3  4  1  0  0  0  0
  3 13  1  0  0  0  0
  4  5  1  0  0  0  0
  5  6  2  0  0  0  0
  5  7  1  0  0  0  0
  6  8  1  0  0  0  0
  6 14  1  0  0  0  0
  7  9  2  0  0  0  0
  7 15  1  0  0  0  0
  8 10  2  0  0  0  0
  8 16  1  0  0  0  0
  9 10  1  0  0  0  0
  9 17  1  0  0  0  0
 10 18  1  0  0  0  0
 11 19  1  0  0  0  0
 11 20  1  0  0  0  0
 11 21  1  0  0  0  0
 12 22  1  0  0  0  0
 12 23  1  0  0  0  0
 12 24  1  0  0  0  0
 13 25  1  0  0  0  0
 13 26  1  0  0  0  0
 13 27  1  0  0  0  0
M  END
> <PUBCHEM_COMPOUND_CID>
69720

> <PUBCHEM_CONFORMER_RMSD>
0.6

> <PUBCHEM_CONFORMER_DIVERSEORDER>
1
2
3

> <PUBCHEM_MMFF94_PARTIAL_CHARGES>
18
1 -0.56
10 -0.15
11 0.28
12 0.28
13 0.28
14 0.15
15 0.15
16 0.15
17 0.15
18 0.15
2 -0.56
3 -0.56
4 0.98
5 -0.14
6 -0.15
7 -0.15
8 -0.15
9 -0.15

> <PUBCHEM_EFFECTIVE_ROTOR_COUNT>
4

> <PUBCHEM_PHARMACOPHORE_FEATURES>
4
1 1 acceptor
1 2 acceptor
1 3 acceptor
6 5 6 7 8 9 10 rings

> <PUBCHEM_HEAVY_ATOM_COUNT>
13

> <PUBCHEM_ATOM_DEF_STEREO_COUNT>
0

> <PUBCHEM_ATOM_UDEF_STEREO_COUNT>
0

> <PUBCHEM_BOND_DEF_STEREO_COUNT>
0

> <PUBCHEM_BOND_UDEF_STEREO_COUNT>
0

> <PUBCHEM_ISOTOPIC_ATOM_COUNT>
0

> <PUBCHEM_COMPONENT_COUNT>
1

> <PUBCHEM_CACTVS_TAUTO_COUNT>
1

> <PUBCHEM_CONFORMER_ID>
0001105800000001

> <PUBCHEM_MMFF94_ENERGY>
45.7842

> <PUBCHEM_FEATURE_SELFOVERLAP>
20.409

> <PUBCHEM_SHAPE_FINGERPRINT>
10219947 1 18410282614960435224
12326174 3 18259991478508315346
12423570 1 13697823988988230486
124424 183 17531228544309888400
12524768 44 17967827075738522215
12932764 1 17560814190679645241
14993402 34 18339913922507131588
15207287 21 17895179009338699691
16945 1 18410580586774661061
20201158 50 17967526848697350347
20511035 2 17750228286898969492
20711985 344 17539970576779110770
21061003 4 18335422322643755216
21524375 3 17467653914477630084
23236772 104 17060046090611701235
23419403 2 12626163055479639917
23552423 10 18131075930780222151
2748010 2 18122902023531000108
29004967 10 18336548226734860235
3248919 1 18411143545592336603
369184 2 17417809509395348259
5084963 1 17917448500720202141
8030462 33 17632587045544572869
81228 2 17756143388974048668

> <PUBCHEM_SHAPE_MULTIPOLES>
249.93
4.19
1.73
1.37
1.1
0.02
0.2
0
0.88
-1.4
-0.5
0.27
0.01
0.06

> <PUBCHEM_SHAPE_SELFOVERLAP>
507.51

> <PUBCHEM_SHAPE_VOLUME>
144.7

> <PUBCHEM_COORDINATE_TYPE>
2
5
10

$$$$
