77918
  -OEChem-06212212553D

 22 23  0     0  0  0  0  0  0999 V2000
    1.5454   -0.0459   -0.4982 N   0  0  0  0  0  0  0  0  0  0  0  0
    3.1825    0.7490    0.7348 N   0  0  0  0  0  0  0  0  0  0  0  0
    0.3841   -0.0606   -1.3937 C   0  0  0  0  0  0  0  0  0  0  0  0
   -0.9014   -0.0246   -0.6379 C   0  0  0  0  0  0  0  0  0  0  0  0
   -1.4899    1.1996   -0.3207 C   0  0  0  0  0  0  0  0  0  0  0  0
   -1.5147   -1.2151   -0.2480 C   0  0  0  0  0  0  0  0  0  0  0  0
    2.1554   -1.1386    0.0141 C   0  0  0  0  0  0  0  0  0  0  0  0
    2.1780    1.0640   -0.0525 C   0  0  0  0  0  0  0  0  0  0  0  0
   -2.6918    1.2333    0.3866 C   0  0  0  0  0  0  0  0  0  0  0  0
   -2.7167   -1.1814    0.4591 C   0  0  0  0  0  0  0  0  0  0  0  0
    3.1743   -0.6226    0.7800 C   0  0  0  0  0  0  0  0  0  0  0  0
   -3.3052    0.0428    0.7763 C   0  0  0  0  0  0  0  0  0  0  0  0
    0.4608   -0.9606   -2.0161 H   0  0  0  0  0  0  0  0  0  0  0  0
    0.4792    0.7988   -2.0688 H   0  0  0  0  0  0  0  0  0  0  0  0
   -1.0225    2.1345   -0.6183 H   0  0  0  0  0  0  0  0  0  0  0  0
   -1.0669   -2.1756   -0.4884 H   0  0  0  0  0  0  0  0  0  0  0  0
    1.8391   -2.1517   -0.1915 H   0  0  0  0  0  0  0  0  0  0  0  0
    1.8801    2.0687   -0.3207 H   0  0  0  0  0  0  0  0  0  0  0  0
   -3.1499    2.1865    0.6338 H   0  0  0  0  0  0  0  0  0  0  0  0
   -3.1943   -2.1084    0.7628 H   0  0  0  0  0  0  0  0  0  0  0  0
    3.9019   -1.1692    1.3621 H   0  0  0  0  0  0  0  0  0  0  0  0
   -4.2409    0.0690    1.3270 H   0  0  0  0  0  0  0  0  0  0  0  0
  1  3  1  0  0  0  0
  1  7  1  0  0  0  0
  1  8  1  0  0  0  0
  2  8  2  0  0  0  0
  2 11  1  0  0  0  0
  3  4  1  0  0  0  0
  3 13  1  0  0  0  0
  3 14  1  0  0  0  0
  4  5  2  0  0  0  0
  4  6  1  0  0  0  0
  5  9  1  0  0  0  0
  5 15  1  0  0  0  0
  6 10  2  0  0  0  0
  6 16  1  0  0  0  0
  7 11  2  0  0  0  0
  7 17  1  0  0  0  0
  8 18  1  0  0  0  0
  9 12  2  0  0  0  0
  9 19  1  0  0  0  0
 10 12  1  0  0  0  0
 10 20  1  0  0  0  0
 11 21  1  0  0  0  0
 12 22  1  0  0  0  0
M  END
> <PUBCHEM_COMPOUND_CID>
77918

> <PUBCHEM_CONFORMER_RMSD>
0.6

> <PUBCHEM_CONFORMER_DIVERSEORDER>
1
3
6
2
4
5

> <PUBCHEM_MMFF94_PARTIAL_CHARGES>
20
1 0.05
10 -0.15
11 0.08
12 -0.15
15 0.15
16 0.15
17 0.15
18 0.15
19 0.15
2 -0.57
20 0.15
21 0.15
22 0.15
3 0.4
4 -0.14
5 -0.15
6 -0.15
7 -0.3
8 0.04
9 -0.15

> <PUBCHEM_EFFECTIVE_ROTOR_COUNT>
2

> <PUBCHEM_PHARMACOPHORE_FEATURES>
3
3 1 2 8 cation
5 1 2 7 8 11 rings
6 4 5 6 9 10 12 rings

> <PUBCHEM_HEAVY_ATOM_COUNT>
12

> <PUBCHEM_ATOM_DEF_STEREO_COUNT>
0

> <PUBCHEM_ATOM_UDEF_STEREO_COUNT>
0

> <PUBCHEM_BOND_DEF_STEREO_COUNT>
0

> <PUBCHEM_BOND_UDEF_STEREO_COUNT>
0

> <PUBCHEM_ISOTOPIC_ATOM_COUNT>
0

> <PUBCHEM_COMPONENT_COUNT>
1

> <PUBCHEM_CACTVS_TAUTO_COUNT>
1

> <PUBCHEM_CONFORMER_ID>
0001305E00000001

> <PUBCHEM_MMFF94_ENERGY>
20.4828

> <PUBCHEM_FEATURE_SELFOVERLAP>
15.223

> <PUBCHEM_SHAPE_FINGERPRINT>
10857977 72 18342469161659987445
11031198 65 15195295217563888861
11127187 94 11530482225014675729
12251169 10 18410293622587126892
12382932 28 18411700984627982945
12696612 119 18411139173020580972
12932764 1 18408887330167207750
13296908 3 15357692007002399278
13764800 53 17275114941692282723
14144814 61 18409730655448535690
15775835 57 13470413253193165691
16945 1 18410576197144017935
17804303 29 18192440670884851094
18186145 218 12967133804337849089
20279233 1 12757434998222847244
20281407 28 16732979804146785598
20361792 2 15719393940444829967
20528008 55 18412258445966601741
20645464 45 18059862735739066159
20653085 51 11599732795810492479
20871999 31 9727052232556737409
22169311 14 18338797818956370082
22445834 79 18113897126373753731
22802520 49 8862941688652267741
230 275 16486978362593261468
23402539 116 18411689981866081445
23402655 69 10159710091881868314
369184 2 18411698785921186479
549884 4 11743842451852569394
81228 2 15214119891802948660

> <PUBCHEM_SHAPE_MULTIPOLES>
236.99
5.8
1.39
1.01
1.09
0
0.15
0.02
-2.2
-0.34
-0.08
0.1
0
0

> <PUBCHEM_SHAPE_SELFOVERLAP>
508.073

> <PUBCHEM_SHAPE_VOLUME>
133

> <PUBCHEM_COORDINATE_TYPE>
2
5
10

$$$$
