8140
  -OEChem-06212212573D

 26 25  0     0  0  0  0  0  0999 V2000
   -5.3497    0.5197    0.0286 Br  0  0  0  0  0  0  0  0  0  0  0  0
    0.0150    0.3738   -0.0446 C   0  0  0  0  0  0  0  0  0  0  0  0
    1.2959   -0.4636   -0.0451 C   0  0  0  0  0  0  0  0  0  0  0  0
   -1.2292   -0.5175   -0.0375 C   0  0  0  0  0  0  0  0  0  0  0  0
    2.5743    0.3793   -0.0293 C   0  0  0  0  0  0  0  0  0  0  0  0
   -2.5111    0.3160   -0.0038 C   0  0  0  0  0  0  0  0  0  0  0  0
    3.8525   -0.4568    0.0438 C   0  0  0  0  0  0  0  0  0  0  0  0
   -3.7402   -0.5756    0.0436 C   0  0  0  0  0  0  0  0  0  0  0  0
    5.0924    0.4247    0.0444 C   0  0  0  0  0  0  0  0  0  0  0  0
    0.0005    1.0230   -0.9282 H   0  0  0  0  0  0  0  0  0  0  0  0
    0.0063    1.0261    0.8370 H   0  0  0  0  0  0  0  0  0  0  0  0
    1.3060   -1.1130   -0.9293 H   0  0  0  0  0  0  0  0  0  0  0  0
    1.2938   -1.1231    0.8318 H   0  0  0  0  0  0  0  0  0  0  0  0
   -1.2290   -1.1577   -0.9281 H   0  0  0  0  0  0  0  0  0  0  0  0
   -1.2005   -1.1793    0.8368 H   0  0  0  0  0  0  0  0  0  0  0  0
    2.5425    1.0613    0.8296 H   0  0  0  0  0  0  0  0  0  0  0  0
    2.5995    1.0061   -0.9294 H   0  0  0  0  0  0  0  0  0  0  0  0
   -2.5482    0.9631   -0.8892 H   0  0  0  0  0  0  0  0  0  0  0  0
   -2.4974    0.9785    0.8707 H   0  0  0  0  0  0  0  0  0  0  0  0
    3.8438   -1.0699    0.9523 H   0  0  0  0  0  0  0  0  0  0  0  0
    3.8966   -1.1420   -0.8107 H   0  0  0  0  0  0  0  0  0  0  0  0
   -3.8036   -1.2326   -0.8281 H   0  0  0  0  0  0  0  0  0  0  0  0
   -3.7768   -1.1753    0.9572 H   0  0  0  0  0  0  0  0  0  0  0  0
    5.0922    1.1015    0.9048 H   0  0  0  0  0  0  0  0  0  0  0  0
    5.9952   -0.1917    0.0972 H   0  0  0  0  0  0  0  0  0  0  0  0
    5.1456    1.0278   -0.8677 H   0  0  0  0  0  0  0  0  0  0  0  0
  1  8  1  0  0  0  0
  2  3  1  0  0  0  0
  2  4  1  0  0  0  0
  2 10  1  0  0  0  0
  2 11  1  0  0  0  0
  3  5  1  0  0  0  0
  3 12  1  0  0  0  0
  3 13  1  0  0  0  0
  4  6  1  0  0  0  0
  4 14  1  0  0  0  0
  4 15  1  0  0  0  0
  5  7  1  0  0  0  0
  5 16  1  0  0  0  0
  5 17  1  0  0  0  0
  6  8  1  0  0  0  0
  6 18  1  0  0  0  0
  6 19  1  0  0  0  0
  7  9  1  0  0  0  0
  7 20  1  0  0  0  0
  7 21  1  0  0  0  0
  8 22  1  0  0  0  0
  8 23  1  0  0  0  0
  9 24  1  0  0  0  0
  9 25  1  0  0  0  0
  9 26  1  0  0  0  0
M  END
> <PUBCHEM_COMPOUND_CID>
8140

> <PUBCHEM_CONFORMER_RMSD>
0.6

> <PUBCHEM_CONFORMER_DIVERSEORDER>
1
73
44
173
168
15
82
108
150
35
34
135
57
27
78
40
123
4
120
86
5
107
125
67
22
122
132
7
176
141
6
47
41
166
148
128
24
38
75
130
106
72
58
11
76
14
171
101
74
23
2
55
50
52
42
164
65
89
54
167
32
81
116
77
100
83
97
79
10
18
137
163
8
172
3
84
43
143
13
131
126
21
46
26
9
146
64
48
162
159
96
170
90
19
117
144
152
59
142
95
115
31
91
151
29
51
161
99
134
70
92
103
49
147
175
112
71
98
33
30
80
62
136
94
154
121
104
25
105
109
69
93
53
36
56
68
118
28
169
138
110
61
20
174
102
45
37
156
139
165
129
39
16
160
124
63
17
60
88
153
133
113
140
155
66
119
114
158
127
12
111
149
85
157
145
87

> <PUBCHEM_MMFF94_PARTIAL_CHARGES>
2
1 -0.23
8 0.23

> <PUBCHEM_EFFECTIVE_ROTOR_COUNT>
6

> <PUBCHEM_PHARMACOPHORE_FEATURES>
4
1 1 hydrophobe
1 9 hydrophobe
3 2 4 6 hydrophobe
3 3 5 7 hydrophobe

> <PUBCHEM_HEAVY_ATOM_COUNT>
9

> <PUBCHEM_ATOM_DEF_STEREO_COUNT>
0

> <PUBCHEM_ATOM_UDEF_STEREO_COUNT>
0

> <PUBCHEM_BOND_DEF_STEREO_COUNT>
0

> <PUBCHEM_BOND_UDEF_STEREO_COUNT>
0

> <PUBCHEM_ISOTOPIC_ATOM_COUNT>
0

> <PUBCHEM_COMPONENT_COUNT>
1

> <PUBCHEM_CACTVS_TAUTO_COUNT>
1

> <PUBCHEM_CONFORMER_ID>
00001FCC00000001

> <PUBCHEM_MMFF94_ENERGY>
-2.896

> <PUBCHEM_FEATURE_SELFOVERLAP>
20.312

> <PUBCHEM_SHAPE_FINGERPRINT>
11062470 55 18410856563934776358
14123238 8 18411136943694813565
15501527 16 18337110056546368805
17834072 33 16988554753694197413
17834076 25 18410856559660908069
18342897 14 18412544314394344817
187816 3 15267344024520981983
20645477 70 17202773592256005094
20719005 15 18410575084663091911
20767249 13 10231756682128804253
20767249 213 18412544310700770605
20828058 44 17749393693381086683
22485316 2 18410571790476235207
23402539 116 18272927233030691805
366044 4 18409729564907124923
42788 4 18410856563945332353

> <PUBCHEM_SHAPE_MULTIPOLES>
191.16
12.21
0.84
0.63
0.84
0
0
-1.76
0.32
0.16
0
0.08
-0.01
0

> <PUBCHEM_SHAPE_SELFOVERLAP>
320.235

> <PUBCHEM_SHAPE_VOLUME>
130.9

> <PUBCHEM_COORDINATE_TYPE>
2
5
10

$$$$
