249266
  -OEChem-06212212573D

 22 23  0     0  0  0  0  0  0999 V2000
    0.7024   -2.5317    0.0013 Cl  0  0  0  0  0  0  0  0  0  0  0  0
    0.6639    0.2051    0.0009 C   0  0  0  0  0  0  0  0  0  0  0  0
   -0.7825    0.1720    0.0007 C   0  0  0  0  0  0  0  0  0  0  0  0
    1.4303   -0.9627    0.0003 C   0  0  0  0  0  0  0  0  0  0  0  0
    1.2982    1.4496    0.0006 C   0  0  0  0  0  0  0  0  0  0  0  0
   -1.4790    0.1556   -1.2078 C   0  0  0  0  0  0  0  0  0  0  0  0
   -1.4805    0.1569    1.2082 C   0  0  0  0  0  0  0  0  0  0  0  0
    2.8230   -0.8865   -0.0006 C   0  0  0  0  0  0  0  0  0  0  0  0
    2.6910    1.5259   -0.0004 C   0  0  0  0  0  0  0  0  0  0  0  0
   -2.8735    0.1240   -1.2087 C   0  0  0  0  0  0  0  0  0  0  0  0
   -2.8751    0.1253    1.2073 C   0  0  0  0  0  0  0  0  0  0  0  0
    3.4534    0.3579   -0.0008 C   0  0  0  0  0  0  0  0  0  0  0  0
   -3.5716    0.1088   -0.0011 C   0  0  0  0  0  0  0  0  0  0  0  0
    0.7219    2.3721    0.0008 H   0  0  0  0  0  0  0  0  0  0  0  0
   -0.9504    0.1667   -2.1581 H   0  0  0  0  0  0  0  0  0  0  0  0
   -0.9532    0.1690    2.1592 H   0  0  0  0  0  0  0  0  0  0  0  0
    3.4324   -1.7866   -0.0009 H   0  0  0  0  0  0  0  0  0  0  0  0
    3.1819    2.4947   -0.0007 H   0  0  0  0  0  0  0  0  0  0  0  0
   -3.4159    0.1109   -2.1495 H   0  0  0  0  0  0  0  0  0  0  0  0
   -3.4187    0.1133    2.1474 H   0  0  0  0  0  0  0  0  0  0  0  0
    4.5378    0.4174   -0.0015 H   0  0  0  0  0  0  0  0  0  0  0  0
   -4.6574    0.0841   -0.0018 H   0  0  0  0  0  0  0  0  0  0  0  0
  1  4  1  0  0  0  0
  2  3  1  0  0  0  0
  2  4  1  0  0  0  0
  2  5  2  0  0  0  0
  3  6  2  0  0  0  0
  3  7  1  0  0  0  0
  4  8  2  0  0  0  0
  5  9  1  0  0  0  0
  5 14  1  0  0  0  0
  6 10  1  0  0  0  0
  6 15  1  0  0  0  0
  7 11  2  0  0  0  0
  7 16  1  0  0  0  0
  8 12  1  0  0  0  0
  8 17  1  0  0  0  0
  9 12  2  0  0  0  0
  9 18  1  0  0  0  0
 10 13  2  0  0  0  0
 10 19  1  0  0  0  0
 11 13  1  0  0  0  0
 11 20  1  0  0  0  0
 12 21  1  0  0  0  0
 13 22  1  0  0  0  0
M  END
> <PUBCHEM_COMPOUND_CID>
249266

> <PUBCHEM_CONFORMER_RMSD>
0.4

> <PUBCHEM_CONFORMER_DIVERSEORDER>
1
2
3

> <PUBCHEM_MMFF94_PARTIAL_CHARGES>
20
1 -0.18
10 -0.15
11 -0.15
12 -0.15
13 -0.15
14 0.15
15 0.15
16 0.15
17 0.15
18 0.15
19 0.15
20 0.15
21 0.15
22 0.15
4 0.18
5 -0.15
6 -0.15
7 -0.15
8 -0.15
9 -0.15

> <PUBCHEM_EFFECTIVE_ROTOR_COUNT>
1

> <PUBCHEM_PHARMACOPHORE_FEATURES>
2
6 2 4 5 8 9 12 rings
6 3 6 7 10 11 13 rings

> <PUBCHEM_HEAVY_ATOM_COUNT>
13

> <PUBCHEM_ATOM_DEF_STEREO_COUNT>
0

> <PUBCHEM_ATOM_UDEF_STEREO_COUNT>
0

> <PUBCHEM_BOND_DEF_STEREO_COUNT>
0

> <PUBCHEM_BOND_UDEF_STEREO_COUNT>
0

> <PUBCHEM_ISOTOPIC_ATOM_COUNT>
0

> <PUBCHEM_COMPONENT_COUNT>
1

> <PUBCHEM_CACTVS_TAUTO_COUNT>
1

> <PUBCHEM_CONFORMER_ID>
0003CDB200000001

> <PUBCHEM_MMFF94_ENERGY>
40.3563

> <PUBCHEM_FEATURE_SELFOVERLAP>
10.149

> <PUBCHEM_SHAPE_FINGERPRINT>
10219947 1 18408323285129065988
10608611 8 17967245395111411669
107287 299 18187373120592159190
11471102 20 18409444765261405532
11578080 2 12614424922423106822
12236239 1 17704071785038927469
12326174 3 18261104119856702042
124424 183 17386275532921861736
12932764 1 17749106698970376531
13538477 17 17489861657325022231
13581323 91 15068621595482724417
14144814 61 17846499231408920241
14251717 144 18411696573644056239
15219456 202 17967531259507398437
15279307 12 17988921171747183423
15309172 13 18408888463975348146
15775835 57 18343301500140795932
16945 1 18410856534123264838
17844478 74 17894917316981191941
18175812 5 17676490570226448023
18186145 218 18343022211518723148
19049666 15 17606111788910679765
19422 9 17704073988431114055
200 152 18343575248945932221
20201158 50 18114181895632428843
20279233 1 17748825219899035123
204376 136 18337107994645094432
20645464 45 17530683208444654937
20645477 70 18337944585280832103
21639500 275 18340196492268187340
21730867 7 18333733515675219870
22802520 49 17824815646718004637
23236772 104 17775566446514358507
23402539 116 16733253630098056623
23557571 272 16950569839753539695
23559900 14 16515960377090133162
23728640 28 15165444168603183395
25 1 18335700516080809380
2748010 2 18265343987191295690
474 4 17701242870918696008
528886 8 18412259558204882512
53748568 43 17917994966620731647
57812782 119 17676201381472668881
63268167 104 18343579650934125560
77492 1 17703790314436324865
81228 2 10086272606730550494
8272917 22 18198630939029908175

> <PUBCHEM_SHAPE_MULTIPOLES>
269.4
5.67
1.64
1.07
0.92
0.92
0
-0.96
0
-1.36
0
0.97
-0.06
0

> <PUBCHEM_SHAPE_SELFOVERLAP>
576.589

> <PUBCHEM_SHAPE_VOLUME>
143.5

> <PUBCHEM_COORDINATE_TYPE>
2
5
10

$$$$
