20274
  -OEChem-06212212543D

 23 22  0     0  0  0  0  0  0999 V2000
    4.8941    0.4445    0.0322 I   0  0  0  0  0  0  0  0  0  0  0  0
   -0.6594    0.4422   -0.0160 C   0  0  0  0  0  0  0  0  0  0  0  0
    0.5474   -0.4992   -0.0095 C   0  0  0  0  0  0  0  0  0  0  0  0
   -1.9734   -0.3421   -0.0007 C   0  0  0  0  0  0  0  0  0  0  0  0
    1.8631    0.2823    0.0082 C   0  0  0  0  0  0  0  0  0  0  0  0
   -3.2143    0.5524   -0.0376 C   0  0  0  0  0  0  0  0  0  0  0  0
    3.0648   -0.6612   -0.0257 C   0  0  0  0  0  0  0  0  0  0  0  0
   -4.5223   -0.2190    0.0491 C   0  0  0  0  0  0  0  0  0  0  0  0
   -0.6184    1.1029    0.8582 H   0  0  0  0  0  0  0  0  0  0  0  0
   -0.6238    1.0807   -0.9069 H   0  0  0  0  0  0  0  0  0  0  0  0
    0.5134   -1.1433   -0.8966 H   0  0  0  0  0  0  0  0  0  0  0  0
    0.4992   -1.1545    0.8686 H   0  0  0  0  0  0  0  0  0  0  0  0
   -2.0006   -1.0248   -0.8591 H   0  0  0  0  0  0  0  0  0  0  0  0
   -2.0083   -0.9664    0.9009 H   0  0  0  0  0  0  0  0  0  0  0  0
    1.9006    0.9085    0.9085 H   0  0  0  0  0  0  0  0  0  0  0  0
    1.8963    0.9602   -0.8539 H   0  0  0  0  0  0  0  0  0  0  0  0
   -3.1721    1.2657    0.7942 H   0  0  0  0  0  0  0  0  0  0  0  0
   -3.2092    1.1421   -0.9620 H   0  0  0  0  0  0  0  0  0  0  0  0
    3.0377   -1.2719   -0.9349 H   0  0  0  0  0  0  0  0  0  0  0  0
    3.0290   -1.3461    0.8289 H   0  0  0  0  0  0  0  0  0  0  0  0
   -4.6176   -0.9195   -0.7865 H   0  0  0  0  0  0  0  0  0  0  0  0
   -4.5787   -0.7879    0.9825 H   0  0  0  0  0  0  0  0  0  0  0  0
   -5.3727    0.4690    0.0168 H   0  0  0  0  0  0  0  0  0  0  0  0
  1  7  1  0  0  0  0
  2  3  1  0  0  0  0
  2  4  1  0  0  0  0
  2  9  1  0  0  0  0
  2 10  1  0  0  0  0
  3  5  1  0  0  0  0
  3 11  1  0  0  0  0
  3 12  1  0  0  0  0
  4  6  1  0  0  0  0
  4 13  1  0  0  0  0
  4 14  1  0  0  0  0
  5  7  1  0  0  0  0
  5 15  1  0  0  0  0
  5 16  1  0  0  0  0
  6  8  1  0  0  0  0
  6 17  1  0  0  0  0
  6 18  1  0  0  0  0
  7 19  1  0  0  0  0
  7 20  1  0  0  0  0
  8 21  1  0  0  0  0
  8 22  1  0  0  0  0
  8 23  1  0  0  0  0
M  END
> <PUBCHEM_COMPOUND_CID>
20274

> <PUBCHEM_CONFORMER_RMSD>
0.6

> <PUBCHEM_CONFORMER_DIVERSEORDER>
1
59
41
22
63
45
20
7
55
13
30
77
32
76
25
3
51
6
78
14
11
15
68
49
67
5
44
72
60
18
26
70
4
39
16
61
43
2
37
35
73
19
66
57
34
8
36
10
62
27
75
12
56
33
69
28
48
40
52
17
23
71
64
65
21
50
42
54
31
47
24
74
29
38
9
53
58
46

> <PUBCHEM_MMFF94_PARTIAL_CHARGES>
2
1 -0.19
7 0.19

> <PUBCHEM_EFFECTIVE_ROTOR_COUNT>
5

> <PUBCHEM_PHARMACOPHORE_FEATURES>
3
1 1 hydrophobe
1 8 hydrophobe
5 2 3 4 5 6 hydrophobe

> <PUBCHEM_HEAVY_ATOM_COUNT>
8

> <PUBCHEM_ATOM_DEF_STEREO_COUNT>
0

> <PUBCHEM_ATOM_UDEF_STEREO_COUNT>
0

> <PUBCHEM_BOND_DEF_STEREO_COUNT>
0

> <PUBCHEM_BOND_UDEF_STEREO_COUNT>
0

> <PUBCHEM_ISOTOPIC_ATOM_COUNT>
0

> <PUBCHEM_COMPONENT_COUNT>
1

> <PUBCHEM_CACTVS_TAUTO_COUNT>
1

> <PUBCHEM_CONFORMER_ID>
00004F3200000001

> <PUBCHEM_MMFF94_ENERGY>
-2.1931

> <PUBCHEM_FEATURE_SELFOVERLAP>
15.223

> <PUBCHEM_SHAPE_FINGERPRINT>
11062470 55 18410575084947922024
14123238 8 18409448093934769958
14325111 11 18410573959413406318
17834072 33 18201717405170140124
17834076 25 17561365084538488704
18342897 14 18202283597723792584
20645477 70 18200596891569570502
20719005 15 18410011039872805256
20767249 13 15357695296884011842
22485316 2 18114178631394097282
23402539 116 13334731358173549507
42788 4 18411138034685149952

> <PUBCHEM_SHAPE_MULTIPOLES>
176.57
10.59
0.86
0.66
0.84
0.01
0
0.97
0.16
0.27
0
0.18
0.01
0.03

> <PUBCHEM_SHAPE_SELFOVERLAP>
286.849

> <PUBCHEM_SHAPE_VOLUME>
125

> <PUBCHEM_COORDINATE_TYPE>
2
5
10

$$$$
