53167
  -OEChem-06212212553D

 19 19  0     0  0  0  0  0  0999 V2000
    1.0133    0.0000   -0.3050 N   0  0  0  0  0  0  0  0  0  0  0  0
   -1.8268    0.0000    0.2731 N   0  0  0  0  0  0  0  0  0  0  0  0
    0.3368   -1.2074    0.1863 C   0  0  0  0  0  0  0  0  0  0  0  0
    0.3369    1.2073    0.1862 C   0  0  0  0  0  0  0  0  0  0  0  0
   -1.1413   -1.2002   -0.2116 C   0  0  0  0  0  0  0  0  0  0  0  0
   -1.1413    1.2002   -0.2114 C   0  0  0  0  0  0  0  0  0  0  0  0
    2.4225    0.0000    0.0824 C   0  0  0  0  0  0  0  0  0  0  0  0
    0.4242   -1.2874    1.2784 H   0  0  0  0  0  0  0  0  0  0  0  0
    0.8074   -2.0987   -0.2459 H   0  0  0  0  0  0  0  0  0  0  0  0
    0.8075    2.0986   -0.2462 H   0  0  0  0  0  0  0  0  0  0  0  0
    0.4243    1.2875    1.2782 H   0  0  0  0  0  0  0  0  0  0  0  0
   -1.2413   -1.2732   -1.3021 H   0  0  0  0  0  0  0  0  0  0  0  0
   -1.6324   -2.0822    0.2139 H   0  0  0  0  0  0  0  0  0  0  0  0
   -1.6322    2.0823    0.2143 H   0  0  0  0  0  0  0  0  0  0  0  0
   -1.2415    1.2735   -1.3019 H   0  0  0  0  0  0  0  0  0  0  0  0
   -2.7904    0.0000   -0.0597 H   0  0  0  0  0  0  0  0  0  0  0  0
    2.9333   -0.8789   -0.3263 H   0  0  0  0  0  0  0  0  0  0  0  0
    2.5537    0.0000    1.1706 H   0  0  0  0  0  0  0  0  0  0  0  0
    2.9335    0.8787   -0.3264 H   0  0  0  0  0  0  0  0  0  0  0  0
  1  3  1  0  0  0  0
  1  4  1  0  0  0  0
  1  7  1  0  0  0  0
  2  5  1  0  0  0  0
  2  6  1  0  0  0  0
  2 16  1  0  0  0  0
  3  5  1  0  0  0  0
  3  8  1  0  0  0  0
  3  9  1  0  0  0  0
  4  6  1  0  0  0  0
  4 10  1  0  0  0  0
  4 11  1  0  0  0  0
  5 12  1  0  0  0  0
  5 13  1  0  0  0  0
  6 14  1  0  0  0  0
  6 15  1  0  0  0  0
  7 17  1  0  0  0  0
  7 18  1  0  0  0  0
  7 19  1  0  0  0  0
M  END
> <PUBCHEM_COMPOUND_CID>
53167

> <PUBCHEM_CONFORMER_RMSD>
0.4

> <PUBCHEM_CONFORMER_DIVERSEORDER>
1
2

> <PUBCHEM_MMFF94_PARTIAL_CHARGES>
8
1 -0.81
16 0.36
2 -0.9
3 0.27
4 0.27
5 0.27
6 0.27
7 0.27

> <PUBCHEM_EFFECTIVE_ROTOR_COUNT>
1.2

> <PUBCHEM_PHARMACOPHORE_FEATURES>
4
1 1 cation
1 2 cation
1 2 donor
6 1 2 3 4 5 6 rings

> <PUBCHEM_HEAVY_ATOM_COUNT>
7

> <PUBCHEM_ATOM_DEF_STEREO_COUNT>
0

> <PUBCHEM_ATOM_UDEF_STEREO_COUNT>
0

> <PUBCHEM_BOND_DEF_STEREO_COUNT>
0

> <PUBCHEM_BOND_UDEF_STEREO_COUNT>
0

> <PUBCHEM_ISOTOPIC_ATOM_COUNT>
0

> <PUBCHEM_COMPONENT_COUNT>
1

> <PUBCHEM_CACTVS_TAUTO_COUNT>
1

> <PUBCHEM_CONFORMER_ID>
0000CFAF00000001

> <PUBCHEM_MMFF94_ENERGY>
6.4848

> <PUBCHEM_FEATURE_SELFOVERLAP>
20.299

> <PUBCHEM_SHAPE_FINGERPRINT>
16714656 1 18410862057361445854
18185500 45 18336543905923978886
20096714 4 18338518517169872459
21040471 1 18266458702628668700
23552423 10 18260553290559543598
29004967 10 15430034348998375544

> <PUBCHEM_SHAPE_MULTIPOLES>
134.09
2.43
1.48
0.64
1.02
0
0
0
-0.05
-0.37
0
-0.01
0
0

> <PUBCHEM_SHAPE_SELFOVERLAP>
251.62

> <PUBCHEM_SHAPE_VOLUME>
82.4

> <PUBCHEM_COORDINATE_TYPE>
2
5
10

$$$$
