220639
  -OEChem-06212212523D

 19 18  0     0  0  0  0  0  0999 V2000
    2.6923   -1.1105   -0.2649 O   0  5  0  0  0  0  0  0  0  0  0  0
    2.7050    1.0925   -0.2441 O   0  0  0  0  0  0  0  0  0  0  0  0
    2.2026   -0.0090    0.0403 N   0  3  0  0  0  0  0  0  0  0  0  0
   -1.5646   -0.0083    0.4368 C   0  0  0  0  0  0  0  0  0  0  0  0
   -0.1985    0.0525   -0.2478 C   0  0  0  0  0  0  0  0  0  0  0  0
   -2.7008    0.0074   -0.5856 C   0  0  0  0  0  0  0  0  0  0  0  0
    0.9251   -0.0056    0.7725 C   0  0  0  0  0  0  0  0  0  0  0  0
   -4.0611   -0.0190    0.0929 C   0  0  0  0  0  0  0  0  0  0  0  0
   -1.6327   -0.9191    1.0445 H   0  0  0  0  0  0  0  0  0  0  0  0
   -1.6699    0.8440    1.1191 H   0  0  0  0  0  0  0  0  0  0  0  0
   -0.1250    0.9735   -0.8404 H   0  0  0  0  0  0  0  0  0  0  0  0
   -0.1097   -0.7827   -0.9549 H   0  0  0  0  0  0  0  0  0  0  0  0
   -2.6287    0.9063   -1.2088 H   0  0  0  0  0  0  0  0  0  0  0  0
   -2.6137   -0.8581   -1.2527 H   0  0  0  0  0  0  0  0  0  0  0  0
    0.8871   -0.9173    1.3776 H   0  0  0  0  0  0  0  0  0  0  0  0
    0.9232    0.8627    1.4390 H   0  0  0  0  0  0  0  0  0  0  0  0
   -4.8587   -0.0081   -0.6565 H   0  0  0  0  0  0  0  0  0  0  0  0
   -4.1786   -0.9215    0.7012 H   0  0  0  0  0  0  0  0  0  0  0  0
   -4.1930    0.8527    0.7418 H   0  0  0  0  0  0  0  0  0  0  0  0
  1  3  1  0  0  0  0
  2  3  2  0  0  0  0
  3  7  1  0  0  0  0
  4  5  1  0  0  0  0
  4  6  1  0  0  0  0
  4  9  1  0  0  0  0
  4 10  1  0  0  0  0
  5  7  1  0  0  0  0
  5 11  1  0  0  0  0
  5 12  1  0  0  0  0
  6  8  1  0  0  0  0
  6 13  1  0  0  0  0
  6 14  1  0  0  0  0
  7 15  1  0  0  0  0
  7 16  1  0  0  0  0
  8 17  1  0  0  0  0
  8 18  1  0  0  0  0
  8 19  1  0  0  0  0
M  CHG  2   1  -1   3   1
M  END
> <PUBCHEM_COMPOUND_CID>
220639

> <PUBCHEM_CONFORMER_RMSD>
0.6

> <PUBCHEM_CONFORMER_DIVERSEORDER>
1
12
20
14
10
19
17
4
2
7
11
15
16
18
13
6
5
9
3
8

> <PUBCHEM_MMFF94_PARTIAL_CHARGES>
4
1 -0.52
2 -0.52
3 0.8
7 0.24

> <PUBCHEM_EFFECTIVE_ROTOR_COUNT>
4

> <PUBCHEM_PHARMACOPHORE_FEATURES>
4
1 1 acceptor
1 1 anion
1 2 acceptor
1 8 hydrophobe

> <PUBCHEM_HEAVY_ATOM_COUNT>
8

> <PUBCHEM_ATOM_DEF_STEREO_COUNT>
0

> <PUBCHEM_ATOM_UDEF_STEREO_COUNT>
0

> <PUBCHEM_BOND_DEF_STEREO_COUNT>
0

> <PUBCHEM_BOND_UDEF_STEREO_COUNT>
0

> <PUBCHEM_ISOTOPIC_ATOM_COUNT>
0

> <PUBCHEM_COMPONENT_COUNT>
1

> <PUBCHEM_CACTVS_TAUTO_COUNT>
2

> <PUBCHEM_CONFORMER_ID>
00035DDF00000001

> <PUBCHEM_MMFF94_ENERGY>
0.6678

> <PUBCHEM_FEATURE_SELFOVERLAP>
20.376

> <PUBCHEM_SHAPE_FINGERPRINT>
11062470 55 18342738529097549289
12932764 1 17418364805627370745
14325111 11 18410855469119081479
14390081 3 17095517392380616277
3248919 1 18412259540914295523
5460574 1 15554446310263685529

> <PUBCHEM_SHAPE_MULTIPOLES>
147.92
6.23
0.82
0.76
2.85
0
0.06
0.04
-0.53
-0.62
-0.07
0.1
0
0.02

> <PUBCHEM_SHAPE_SELFOVERLAP>
262.994

> <PUBCHEM_SHAPE_VOLUME>
97.1

> <PUBCHEM_COORDINATE_TYPE>
2
5
10

$$$$
