8071
  -OEChem-06212212513D

 16 15  0     0  0  0  0  0  0999 V2000
    1.7485    0.4951   -0.0107 O   0  0  0  0  0  0  0  0  0  0  0  0
   -1.7485   -0.4951   -0.0107 O   0  0  0  0  0  0  0  0  0  0  0  0
    0.6437   -0.4009   -0.0003 C   0  0  0  0  0  0  0  0  0  0  0  0
   -0.6437    0.4009   -0.0004 C   0  0  0  0  0  0  0  0  0  0  0  0
    2.9854   -0.2036    0.0111 C   0  0  0  0  0  0  0  0  0  0  0  0
   -2.9854    0.2035    0.0111 C   0  0  0  0  0  0  0  0  0  0  0  0
    0.6790   -1.0525   -0.8819 H   0  0  0  0  0  0  0  0  0  0  0  0
    0.6837   -1.0417    0.8889 H   0  0  0  0  0  0  0  0  0  0  0  0
   -0.6790    1.0524   -0.8820 H   0  0  0  0  0  0  0  0  0  0  0  0
   -0.6838    1.0418    0.8888 H   0  0  0  0  0  0  0  0  0  0  0  0
    3.7958    0.5303   -0.0010 H   0  0  0  0  0  0  0  0  0  0  0  0
    3.0805   -0.8432   -0.8718 H   0  0  0  0  0  0  0  0  0  0  0  0
    3.0713   -0.8034    0.9224 H   0  0  0  0  0  0  0  0  0  0  0  0
   -3.0713    0.8031    0.9225 H   0  0  0  0  0  0  0  0  0  0  0  0
   -3.7957   -0.5305   -0.0011 H   0  0  0  0  0  0  0  0  0  0  0  0
   -3.0805    0.8432   -0.8717 H   0  0  0  0  0  0  0  0  0  0  0  0
  1  3  1  0  0  0  0
  1  5  1  0  0  0  0
  2  4  1  0  0  0  0
  2  6  1  0  0  0  0
  3  4  1  0  0  0  0
  3  7  1  0  0  0  0
  3  8  1  0  0  0  0
  4  9  1  0  0  0  0
  4 10  1  0  0  0  0
  5 11  1  0  0  0  0
  5 12  1  0  0  0  0
  5 13  1  0  0  0  0
  6 14  1  0  0  0  0
  6 15  1  0  0  0  0
  6 16  1  0  0  0  0
M  END
> <PUBCHEM_COMPOUND_CID>
8071

> <PUBCHEM_CONFORMER_RMSD>
0.4

> <PUBCHEM_CONFORMER_DIVERSEORDER>
3
14
10
6
13
1
12
5
7
4
11
2
9
8

> <PUBCHEM_MMFF94_PARTIAL_CHARGES>
6
1 -0.56
2 -0.56
3 0.28
4 0.28
5 0.28
6 0.28

> <PUBCHEM_EFFECTIVE_ROTOR_COUNT>
3

> <PUBCHEM_PHARMACOPHORE_FEATURES>
2
1 1 acceptor
1 2 acceptor

> <PUBCHEM_HEAVY_ATOM_COUNT>
6

> <PUBCHEM_ATOM_DEF_STEREO_COUNT>
0

> <PUBCHEM_ATOM_UDEF_STEREO_COUNT>
0

> <PUBCHEM_BOND_DEF_STEREO_COUNT>
0

> <PUBCHEM_BOND_UDEF_STEREO_COUNT>
0

> <PUBCHEM_ISOTOPIC_ATOM_COUNT>
0

> <PUBCHEM_COMPONENT_COUNT>
1

> <PUBCHEM_CACTVS_TAUTO_COUNT>
1

> <PUBCHEM_CONFORMER_ID>
00001F8700000003

> <PUBCHEM_MMFF94_ENERGY>
12.4572

> <PUBCHEM_FEATURE_SELFOVERLAP>
10.149

> <PUBCHEM_SHAPE_FINGERPRINT>
14390081 3 18202279204067200769
16714656 1 18411418414482065047
29004967 10 18410579491310100258
5460574 1 9295290542671790082

> <PUBCHEM_SHAPE_MULTIPOLES>
111.74
4.83
0.72
0.58
0
0
0
0
0.02
0
0
0
0
0

> <PUBCHEM_SHAPE_SELFOVERLAP>
188.76

> <PUBCHEM_SHAPE_VOLUME>
77

> <PUBCHEM_COORDINATE_TYPE>
2
5
10

$$$$
