39253
  -OEChem-06212212513D

 22 23  0     0  0  0  0  0  0999 V2000
    0.4915   -2.5447   -0.6182 Cl  0  0  0  0  0  0  0  0  0  0  0  0
   -0.8994    0.7799   -2.4122 Cl  0  0  0  0  0  0  0  0  0  0  0  0
   -0.5494   -0.6950    2.8272 Cl  0  0  0  0  0  0  0  0  0  0  0  0
    3.6381   -2.3832   -0.8032 Cl  0  0  0  0  0  0  0  0  0  0  0  0
    3.3562    2.8676    0.6841 Cl  0  0  0  0  0  0  0  0  0  0  0  0
   -4.0479    0.7195   -2.1683 Cl  0  0  0  0  0  0  0  0  0  0  0  0
    5.0985    0.3326   -0.1497 Cl  0  0  0  0  0  0  0  0  0  0  0  0
   -5.3687   -0.0565    0.6285 Cl  0  0  0  0  0  0  0  0  0  0  0  0
    0.5829    0.0672    0.1040 C   0  0  0  0  0  0  0  0  0  0  0  0
   -0.8655    0.0427    0.2037 C   0  0  0  0  0  0  0  0  0  0  0  0
    1.3237   -1.0560   -0.2638 C   0  0  0  0  0  0  0  0  0  0  0  0
    1.2327    1.2673    0.3924 C   0  0  0  0  0  0  0  0  0  0  0  0
   -1.6600    0.3573   -0.9018 C   0  0  0  0  0  0  0  0  0  0  0  0
   -1.4708   -0.2953    1.4167 C   0  0  0  0  0  0  0  0  0  0  0  0
    2.7141   -0.9791   -0.3434 C   0  0  0  0  0  0  0  0  0  0  0  0
    2.6232    1.3442    0.3127 C   0  0  0  0  0  0  0  0  0  0  0  0
   -3.0505    0.3337   -0.7949 C   0  0  0  0  0  0  0  0  0  0  0  0
   -2.8612   -0.3188    1.5237 C   0  0  0  0  0  0  0  0  0  0  0  0
    3.3638    0.2209   -0.0552 C   0  0  0  0  0  0  0  0  0  0  0  0
   -3.6512   -0.0044    0.4178 C   0  0  0  0  0  0  0  0  0  0  0  0
    0.6561    2.1452    0.6797 H   0  0  0  0  0  0  0  0  0  0  0  0
   -3.3292   -0.5826    2.4702 H   0  0  0  0  0  0  0  0  0  0  0  0
  1 11  1  0  0  0  0
  2 13  1  0  0  0  0
  3 14  1  0  0  0  0
  4 15  1  0  0  0  0
  5 16  1  0  0  0  0
  6 17  1  0  0  0  0
  7 19  1  0  0  0  0
  8 20  1  0  0  0  0
  9 10  1  0  0  0  0
  9 11  1  0  0  0  0
  9 12  2  0  0  0  0
 10 13  2  0  0  0  0
 10 14  1  0  0  0  0
 11 15  2  0  0  0  0
 12 16  1  0  0  0  0
 12 21  1  0  0  0  0
 13 17  1  0  0  0  0
 14 18  2  0  0  0  0
 15 19  1  0  0  0  0
 16 19  2  0  0  0  0
 17 20  2  0  0  0  0
 18 20  1  0  0  0  0
 18 22  1  0  0  0  0
M  END
> <PUBCHEM_COMPOUND_CID>
39253

> <PUBCHEM_CONFORMER_RMSD>
0.6

> <PUBCHEM_CONFORMER_DIVERSEORDER>
1
2

> <PUBCHEM_MMFF94_PARTIAL_CHARGES>
20
1 -0.18
11 0.18
12 -0.15
13 0.18
14 0.18
15 0.18
16 0.18
17 0.18
18 -0.15
19 0.18
2 -0.18
20 0.18
21 0.15
22 0.15
3 -0.18
4 -0.18
5 -0.18
6 -0.18
7 -0.18
8 -0.18

> <PUBCHEM_EFFECTIVE_ROTOR_COUNT>
1

> <PUBCHEM_PHARMACOPHORE_FEATURES>
2
6 10 13 14 17 18 20 rings
6 9 11 12 15 16 19 rings

> <PUBCHEM_HEAVY_ATOM_COUNT>
20

> <PUBCHEM_ATOM_DEF_STEREO_COUNT>
0

> <PUBCHEM_ATOM_UDEF_STEREO_COUNT>
0

> <PUBCHEM_BOND_DEF_STEREO_COUNT>
0

> <PUBCHEM_BOND_UDEF_STEREO_COUNT>
0

> <PUBCHEM_ISOTOPIC_ATOM_COUNT>
0

> <PUBCHEM_COMPONENT_COUNT>
1

> <PUBCHEM_CACTVS_TAUTO_COUNT>
1

> <PUBCHEM_CONFORMER_ID>
0000995500000001

> <PUBCHEM_MMFF94_ENERGY>
58.9408

> <PUBCHEM_FEATURE_SELFOVERLAP>
10.149

> <PUBCHEM_SHAPE_FINGERPRINT>
10863032 1 18201438146470543471
11582403 64 17394676991174205180
11725454 13 17825637140712260836
12119455 92 18335698364486933874
12236239 1 17203895153776113257
12403259 415 18113614603483168357
12592029 89 18412262822280281498
13009979 54 16701466632859248206
13134695 92 18340488868346441092
13140716 1 18199183087409482280
13538477 17 16558744616024955143
13583140 156 17988933292508324497
14386348 63 18040442087390046482
15219456 202 18259984859742179071
15309172 13 18412548738331920426
15342168 16 18196374938169053868
16752209 62 15626210322044366989
16945 1 18341049631544362691
1813 80 17558851493994934070
18186145 218 18202279229794696044
19422 9 17275099531275817207
19862831 5 17060340746674322512
19930381 70 18269552896080094281
200 152 17989205923804519921
20344682 1 18113622282873962431
20510252 161 17168142313070513709
20600515 1 16878234141977122213
20645476 183 17346596400269310861
20645477 70 18339365171452229958
20691752 17 17417509402708044451
21033648 29 18113890580891340005
21639500 275 18272367602923583216
22112679 90 16487252149420237443
23402539 116 17167859794369127631
23526113 38 18189046504591636474
23557571 272 17530686506631463365
23559900 14 17240760628242751018
23598291 2 17273987843684918702
3286 77 18337680715074179190
4340502 62 18201445821825209899
474 4 17845363526635430632
5265222 85 17023484031471670146
633830 44 17917443045948413949
77492 1 17203611475465316457
8272917 22 18130799914590835087

> <PUBCHEM_SHAPE_MULTIPOLES>
426.55
8.91
2.08
2.02
1.73
0.17
0.2
-1.32
-0.77
-3.05
-0.19
2
-0.02
1.54

> <PUBCHEM_SHAPE_SELFOVERLAP>
854.072

> <PUBCHEM_SHAPE_VOLUME>
243.3

> <PUBCHEM_COORDINATE_TYPE>
2
5
10

$$$$
