38254
  -OEChem-06212212573D

 22 24  0     0  0  0  0  0  0999 V2000
   -1.5893   -3.1769    0.0007 Cl  0  0  0  0  0  0  0  0  0  0  0  0
   -2.0424    3.0782   -0.0006 Cl  0  0  0  0  0  0  0  0  0  0  0  0
   -4.4464   -1.8179   -0.0003 Cl  0  0  0  0  0  0  0  0  0  0  0  0
   -4.6739    1.3216    0.0000 Cl  0  0  0  0  0  0  0  0  0  0  0  0
    5.6701   -1.0678   -0.0009 Cl  0  0  0  0  0  0  0  0  0  0  0  0
    0.6088   -1.3044   -0.0003 O   0  0  0  0  0  0  0  0  0  0  0  0
    0.4027    1.5420    0.0001 O   0  0  0  0  0  0  0  0  0  0  0  0
   -0.6024   -0.6603   -0.0002 C   0  0  0  0  0  0  0  0  0  0  0  0
   -0.7032    0.7301    0.0001 C   0  0  0  0  0  0  0  0  0  0  0  0
    1.7148   -0.4926    0.0000 C   0  0  0  0  0  0  0  0  0  0  0  0
    1.6141    0.8979    0.0001 C   0  0  0  0  0  0  0  0  0  0  0  0
   -1.7538   -1.4470   -0.0003 C   0  0  0  0  0  0  0  0  0  0  0  0
   -1.9557    1.3426    0.0004 C   0  0  0  0  0  0  0  0  0  0  0  0
   -3.0078   -0.8355   -0.0001 C   0  0  0  0  0  0  0  0  0  0  0  0
   -3.1086    0.5569    0.0002 C   0  0  0  0  0  0  0  0  0  0  0  0
    2.9675   -1.1051    0.0001 C   0  0  0  0  0  0  0  0  0  0  0  0
    2.7655    1.6845    0.0003 C   0  0  0  0  0  0  0  0  0  0  0  0
    4.1204   -0.3193    0.0003 C   0  0  0  0  0  0  0  0  0  0  0  0
    4.0195    1.0731    0.0004 C   0  0  0  0  0  0  0  0  0  0  0  0
    3.0384   -2.1901   -0.0003 H   0  0  0  0  0  0  0  0  0  0  0  0
    2.6944    2.7686    0.0003 H   0  0  0  0  0  0  0  0  0  0  0  0
    4.9113    1.6947    0.0003 H   0  0  0  0  0  0  0  0  0  0  0  0
  1 12  1  0  0  0  0
  2 13  1  0  0  0  0
  3 14  1  0  0  0  0
  4 15  1  0  0  0  0
  5 18  1  0  0  0  0
  6  8  1  0  0  0  0
  6 10  1  0  0  0  0
  7  9  1  0  0  0  0
  7 11  1  0  0  0  0
  8  9  2  0  0  0  0
  8 12  1  0  0  0  0
  9 13  1  0  0  0  0
 10 11  2  0  0  0  0
 10 16  1  0  0  0  0
 11 17  1  0  0  0  0
 12 14  2  0  0  0  0
 13 15  2  0  0  0  0
 14 15  1  0  0  0  0
 16 18  2  0  0  0  0
 16 20  1  0  0  0  0
 17 19  2  0  0  0  0
 17 21  1  0  0  0  0
 18 19  1  0  0  0  0
 19 22  1  0  0  0  0
M  END
> <PUBCHEM_COMPOUND_CID>
38254

> <PUBCHEM_CONFORMER_RMSD>
0.6

> <PUBCHEM_CONFORMER_DIVERSEORDER>
1

> <PUBCHEM_MMFF94_PARTIAL_CHARGES>
22
1 -0.18
10 0.08
11 0.08
12 0.18
13 0.18
14 0.18
15 0.18
16 -0.15
17 -0.15
18 0.18
19 -0.15
2 -0.18
20 0.15
21 0.15
22 0.15
3 -0.18
4 -0.18
5 -0.18
6 -0.17
7 -0.17
8 0.08
9 0.08

> <PUBCHEM_EFFECTIVE_ROTOR_COUNT>
0.4

> <PUBCHEM_PHARMACOPHORE_FEATURES>
5
1 6 acceptor
1 7 acceptor
6 10 11 16 17 18 19 rings
6 6 7 8 9 10 11 rings
6 8 9 12 13 14 15 rings

> <PUBCHEM_HEAVY_ATOM_COUNT>
19

> <PUBCHEM_ATOM_DEF_STEREO_COUNT>
0

> <PUBCHEM_ATOM_UDEF_STEREO_COUNT>
0

> <PUBCHEM_BOND_DEF_STEREO_COUNT>
0

> <PUBCHEM_BOND_UDEF_STEREO_COUNT>
0

> <PUBCHEM_ISOTOPIC_ATOM_COUNT>
0

> <PUBCHEM_COMPONENT_COUNT>
1

> <PUBCHEM_CACTVS_TAUTO_COUNT>
1

> <PUBCHEM_CONFORMER_ID>
0000956E00000001

> <PUBCHEM_MMFF94_ENERGY>
54.7045

> <PUBCHEM_FEATURE_SELFOVERLAP>
25.449

> <PUBCHEM_SHAPE_FINGERPRINT>
10319926 262 18269534119268709714
10411042 1 17978229692578179343
10608611 8 18412542128467208560
10616163 171 18411702110163219670
10967382 1 18338516331005080069
11132069 177 18412259549404120216
11578080 2 16986858280193182811
12107183 9 17686613542403826418
12173636 292 18338794524885610117
12236239 1 17894632543991700854
12403259 226 18341325677804178848
13140716 1 18339083807848802435
13288520 33 18412266112599386678
13583140 156 14620797072305336191
13675066 3 18060131042810108410
138480 1 16681473985503260933
13862211 1 18340204202177855183
14790565 3 18268437828471675457
15042514 8 18337113462022755579
15196674 1 18410574010958269124
15442244 35 18409446951916567890
15536298 74 18341612650844949720
16945 1 18410856572561653701
17492 89 18264771146050102234
17804303 29 18412829096669920628
1813 80 17240197738534715508
18186145 218 17822283604730674966
19591789 44 18410012091765623210
200 152 17988921184404750807
20510252 161 18342740710830296177
21029758 11 18268986652371644133
21267235 1 18409738390685116482
221490 88 18264776635138898298
2306618 200 18201727223629084937
23175994 123 17275385378787756544
23402539 116 18342451547967477783
23463225 33 18408886256647040092
23557571 272 18271817864036240070
23559900 14 18342452664986282056
2748010 2 17908698776112213193
2871803 45 18261948639065085131
3004659 81 18261398798544114398
335352 9 18410573950807628412
350125 39 18410014295110330248
3545911 37 18410856521038019853
4214541 1 18410855460159823296
474 4 17096936973967751396
5104073 3 18411418436030878816
54173680 148 18265616661453105675
559249 180 18335697205115192146
58051976 378 18341611452126990311
59755656 215 18267305330861102279
59755656 520 16950565471988285715
633830 44 17240203270178331128
69090 78 18412260623330384997
77779 3 18410294735199953860
8809292 202 18335423512350053618
9709674 26 18341619230423948862

> <PUBCHEM_SHAPE_MULTIPOLES>
388.62
9.6
2.91
0.62
6.52
0.13
0
1.21
0
-2.44
0
-0.02
0
0

> <PUBCHEM_SHAPE_SELFOVERLAP>
820.887

> <PUBCHEM_SHAPE_VOLUME>
221.9

> <PUBCHEM_COORDINATE_TYPE>
2
5
10

$$$$
