63088
  -OEChem-06212212543D

 22 23  0     0  0  0  0  0  0999 V2000
   -0.9514   -0.0172   -2.8423 Cl  0  0  0  0  0  0  0  0  0  0  0  0
    3.1224    2.7459    0.2199 Cl  0  0  0  0  0  0  0  0  0  0  0  0
    3.1234   -2.7428    0.2505 Cl  0  0  0  0  0  0  0  0  0  0  0  0
    4.7567    0.0025    0.3702 Cl  0  0  0  0  0  0  0  0  0  0  0  0
   -4.2867    0.0134    2.4310 Cl  0  0  0  0  0  0  0  0  0  0  0  0
    0.2438   -0.0001    0.0012 C   0  0  0  0  0  0  0  0  0  0  0  0
   -1.1983   -0.0009   -0.1162 C   0  0  0  0  0  0  0  0  0  0  0  0
    0.9389   -1.2077    0.0643 C   0  0  0  0  0  0  0  0  0  0  0  0
    0.9388    1.2083    0.0511 C   0  0  0  0  0  0  0  0  0  0  0  0
   -1.8386   -0.0074   -1.3577 C   0  0  0  0  0  0  0  0  0  0  0  0
   -1.9590    0.0055    1.0553 C   0  0  0  0  0  0  0  0  0  0  0  0
    2.3291    1.2089    0.1642 C   0  0  0  0  0  0  0  0  0  0  0  0
    2.3292   -1.2069    0.1776 C   0  0  0  0  0  0  0  0  0  0  0  0
    3.0243    0.0014    0.2275 C   0  0  0  0  0  0  0  0  0  0  0  0
   -3.3521    0.0056    0.9858 C   0  0  0  0  0  0  0  0  0  0  0  0
   -3.2318   -0.0075   -1.4271 C   0  0  0  0  0  0  0  0  0  0  0  0
   -3.9886   -0.0010   -0.2553 C   0  0  0  0  0  0  0  0  0  0  0  0
    0.3952   -2.1500    0.0250 H   0  0  0  0  0  0  0  0  0  0  0  0
    0.3948    2.1500    0.0013 H   0  0  0  0  0  0  0  0  0  0  0  0
   -1.4677    0.0106    2.0268 H   0  0  0  0  0  0  0  0  0  0  0  0
   -3.7438   -0.0128   -2.3860 H   0  0  0  0  0  0  0  0  0  0  0  0
   -5.0734   -0.0011   -0.3246 H   0  0  0  0  0  0  0  0  0  0  0  0
  1 10  1  0  0  0  0
  2 12  1  0  0  0  0
  3 13  1  0  0  0  0
  4 14  1  0  0  0  0
  5 15  1  0  0  0  0
  6  7  1  0  0  0  0
  6  8  2  0  0  0  0
  6  9  1  0  0  0  0
  7 10  2  0  0  0  0
  7 11  1  0  0  0  0
  8 13  1  0  0  0  0
  8 18  1  0  0  0  0
  9 12  2  0  0  0  0
  9 19  1  0  0  0  0
 10 16  1  0  0  0  0
 11 15  2  0  0  0  0
 11 20  1  0  0  0  0
 12 14  1  0  0  0  0
 13 14  2  0  0  0  0
 15 17  1  0  0  0  0
 16 17  2  0  0  0  0
 16 21  1  0  0  0  0
 17 22  1  0  0  0  0
M  END
> <PUBCHEM_COMPOUND_CID>
63088

> <PUBCHEM_CONFORMER_RMSD>
0.6

> <PUBCHEM_CONFORMER_DIVERSEORDER>
1
2
3

> <PUBCHEM_MMFF94_PARTIAL_CHARGES>
20
1 -0.18
10 0.18
11 -0.15
12 0.18
13 0.18
14 0.18
15 0.18
16 -0.15
17 -0.15
18 0.15
19 0.15
2 -0.18
20 0.15
21 0.15
22 0.15
3 -0.18
4 -0.18
5 -0.18
8 -0.15
9 -0.15

> <PUBCHEM_EFFECTIVE_ROTOR_COUNT>
1

> <PUBCHEM_PHARMACOPHORE_FEATURES>
2
6 6 8 9 12 13 14 rings
6 7 10 11 15 16 17 rings

> <PUBCHEM_HEAVY_ATOM_COUNT>
17

> <PUBCHEM_ATOM_DEF_STEREO_COUNT>
0

> <PUBCHEM_ATOM_UDEF_STEREO_COUNT>
0

> <PUBCHEM_BOND_DEF_STEREO_COUNT>
0

> <PUBCHEM_BOND_UDEF_STEREO_COUNT>
0

> <PUBCHEM_ISOTOPIC_ATOM_COUNT>
0

> <PUBCHEM_COMPONENT_COUNT>
1

> <PUBCHEM_CACTVS_TAUTO_COUNT>
1

> <PUBCHEM_CONFORMER_ID>
0000F67000000001

> <PUBCHEM_MMFF94_ENERGY>
46.9626

> <PUBCHEM_FEATURE_SELFOVERLAP>
10.149

> <PUBCHEM_SHAPE_FINGERPRINT>
11471102 20 18409724071838696808
11640471 11 17703228532703757520
11796584 16 16371276707053445114
12236239 1 17703787028918147287
12553582 1 18197498411915363422
13140716 1 18266171924121488096
13296908 3 17312824874831371827
13538477 17 17130972295732267591
13583140 156 18343022216214487305
14289901 80 18409726287894122129
14386348 63 17530965769810727707
15219456 202 17967527995279577405
15309172 13 18409447007292505587
15342168 16 18046908452823435292
15375462 189 18060418006227574488
15653759 3 17095234826355663744
15669948 3 16558176232974899421
15842332 3 17774995817090846775
16752209 62 16056873654850629197
16945 1 18410566293466345744
17844478 74 17821727221592403869
1813 80 17986963934144980238
18175812 5 17676483977520175069
18186145 218 18341332301023265004
18785283 64 18042977643441514524
19049666 15 17532918420625040669
19422 9 17775001323233613031
19784866 34 18125999601628027920
200 152 18342727525396533871
20279233 1 17749105582453076251
204376 136 18192708075949594096
20600515 1 16225757519679679333
20645476 183 17774712151839155607
20645477 70 18264193747351670798
21041028 32 18196938764748899864
21065201 7 16153420623596615067
212916 134 15338834197391630747
21486144 27 18261387892434888604
21639500 275 18339626954014223596
21756936 100 17771922785429391048
22112679 90 17346309423133869784
2255824 54 18342736321632234206
22943178 12 17748824103270926083
23402539 116 14907897150245121233
23526113 38 17824243939489654002
23557571 272 16877937222466592805
23559900 14 16443333227228150986
23598291 2 17774717670629660892
31174 14 18333736805699277026
458136 41 18262811786248101948
474 4 18127962212682497120
573450 72 16774072951633699519
602551 16 16153714257773518680
6049 1 17749391425300601325
621550 5 17678757647460507406
633830 44 18058181685724437292
7615 1 17703778224256419513
77492 1 17775562052746866895
81228 2 16751247928250329146
8272917 22 18270966747863734367
9981440 41 16406439411016639600

> <PUBCHEM_SHAPE_MULTIPOLES>
359.2
8.36
1.9
1.87
0.62
0.01
0.76
0.02
-3.18
-3.46
-0.27
2.88
-0.01
-0.04

> <PUBCHEM_SHAPE_SELFOVERLAP>
733.247

> <PUBCHEM_SHAPE_VOLUME>
201.7

> <PUBCHEM_COORDINATE_TYPE>
2
5
10

$$$$
