91662
  -OEChem-06212212583D

 22 23  0     0  0  0  0  0  0999 V2000
    0.3116   -1.7148    2.1370 Cl  0  0  0  0  0  0  0  0  0  0  0  0
    0.3107    1.7145   -2.1370 Cl  0  0  0  0  0  0  0  0  0  0  0  0
   -0.9275    2.1401    1.7119 Cl  0  0  0  0  0  0  0  0  0  0  0  0
   -0.9297   -2.1408   -1.7116 Cl  0  0  0  0  0  0  0  0  0  0  0  0
    4.9306    0.0022    0.0010 Cl  0  0  0  0  0  0  0  0  0  0  0  0
    0.4197   -0.0005   -0.0005 C   0  0  0  0  0  0  0  0  0  0  0  0
   -1.0356   -0.0002    0.0001 C   0  0  0  0  0  0  0  0  0  0  0  0
    1.1172   -0.7548    0.9431 C   0  0  0  0  0  0  0  0  0  0  0  0
    1.1171    0.7536   -0.9441 C   0  0  0  0  0  0  0  0  0  0  0  0
   -1.7326    0.9437    0.7544 C   0  0  0  0  0  0  0  0  0  0  0  0
   -1.7336   -0.9435   -0.7540 C   0  0  0  0  0  0  0  0  0  0  0  0
    2.5122   -0.7548    0.9434 C   0  0  0  0  0  0  0  0  0  0  0  0
    2.5120    0.7534   -0.9445 C   0  0  0  0  0  0  0  0  0  0  0  0
   -3.1276    0.9443    0.7550 C   0  0  0  0  0  0  0  0  0  0  0  0
   -3.1285   -0.9428   -0.7541 C   0  0  0  0  0  0  0  0  0  0  0  0
    3.2095   -0.0007   -0.0007 C   0  0  0  0  0  0  0  0  0  0  0  0
   -3.8255    0.0011    0.0005 C   0  0  0  0  0  0  0  0  0  0  0  0
    3.0592   -1.3421    1.6781 H   0  0  0  0  0  0  0  0  0  0  0  0
    3.0588    1.3415   -1.6786 H   0  0  0  0  0  0  0  0  0  0  0  0
   -3.6869    1.6723    1.3371 H   0  0  0  0  0  0  0  0  0  0  0  0
   -3.6887   -1.6704   -1.3361 H   0  0  0  0  0  0  0  0  0  0  0  0
   -4.9116    0.0015    0.0006 H   0  0  0  0  0  0  0  0  0  0  0  0
  1  8  1  0  0  0  0
  2  9  1  0  0  0  0
  3 10  1  0  0  0  0
  4 11  1  0  0  0  0
  5 16  1  0  0  0  0
  6  7  1  0  0  0  0
  6  8  2  0  0  0  0
  6  9  1  0  0  0  0
  7 10  2  0  0  0  0
  7 11  1  0  0  0  0
  8 12  1  0  0  0  0
  9 13  2  0  0  0  0
 10 14  1  0  0  0  0
 11 15  2  0  0  0  0
 12 16  2  0  0  0  0
 12 18  1  0  0  0  0
 13 16  1  0  0  0  0
 13 19  1  0  0  0  0
 14 17  2  0  0  0  0
 14 20  1  0  0  0  0
 15 17  1  0  0  0  0
 15 21  1  0  0  0  0
 17 22  1  0  0  0  0
M  END
> <PUBCHEM_COMPOUND_CID>
91662

> <PUBCHEM_CONFORMER_RMSD>
0.6

> <PUBCHEM_CONFORMER_DIVERSEORDER>
1

> <PUBCHEM_MMFF94_PARTIAL_CHARGES>
20
1 -0.18
10 0.18
11 0.18
12 -0.15
13 -0.15
14 -0.15
15 -0.15
16 0.18
17 -0.15
18 0.15
19 0.15
2 -0.18
20 0.15
21 0.15
22 0.15
3 -0.18
4 -0.18
5 -0.18
8 0.18
9 0.18

> <PUBCHEM_EFFECTIVE_ROTOR_COUNT>
1

> <PUBCHEM_PHARMACOPHORE_FEATURES>
2
6 6 8 9 12 13 16 rings
6 7 10 11 14 15 17 rings

> <PUBCHEM_HEAVY_ATOM_COUNT>
17

> <PUBCHEM_ATOM_DEF_STEREO_COUNT>
0

> <PUBCHEM_ATOM_UDEF_STEREO_COUNT>
0

> <PUBCHEM_BOND_DEF_STEREO_COUNT>
0

> <PUBCHEM_BOND_UDEF_STEREO_COUNT>
0

> <PUBCHEM_ISOTOPIC_ATOM_COUNT>
0

> <PUBCHEM_COMPONENT_COUNT>
1

> <PUBCHEM_CACTVS_TAUTO_COUNT>
1

> <PUBCHEM_CONFORMER_ID>
0001660E00000001

> <PUBCHEM_MMFF94_ENERGY>
47.5439

> <PUBCHEM_FEATURE_SELFOVERLAP>
10.149

> <PUBCHEM_SHAPE_FINGERPRINT>
10863032 1 17559104595948188392
11370993 70 17775005661467392262
11578080 2 17832377117026431701
12236239 1 18408604759957979635
13538477 17 18340199786729578055
13581323 91 17988922266789341422
13965767 371 17691147949310183537
15219456 202 15913337857319833908
15309172 13 17240488013329729186
15775835 57 18408888408088162241
16752209 62 18129923638573749775
16945 1 18409167714232735495
18175812 5 16128368324172280093
18186145 218 17967811686564752030
200 152 17967529082175159747
20510252 161 17489312940656051193
20600515 1 17561092444278390361
20645476 183 18335132116384089023
23175994 123 16515407348094421500
23236772 104 18408603647561469843
23402539 116 17489582355528170205
23419403 2 16685908792217672796
23493267 7 16702026335885666706
23557571 272 17275111621387430073
23559900 14 17274832311849300558
350125 39 17052767083534588593
474 4 18117556456233549356
528886 8 17603860130672633832
568465 68 16154007775680342744
77492 1 18408604760000171139
8272917 22 17822569379333801779

> <PUBCHEM_SHAPE_MULTIPOLES>
359.2
6.1
1.9
1.9
3.6
0
0
0
0
-0.67
0
-0.14
0
-1.26

> <PUBCHEM_SHAPE_SELFOVERLAP>
736.377

> <PUBCHEM_SHAPE_VOLUME>
200.5

> <PUBCHEM_COORDINATE_TYPE>
2
5
10

$$$$
