8059
  -OEChem-06212212573D

 14 13  0     0  0  0  0  0  0999 V2000
    2.4910   -0.9316   -0.4502 Cl  0  0  0  0  0  0  0  0  0  0  0  0
   -2.4912   -0.9314    0.4504 Cl  0  0  0  0  0  0  0  0  0  0  0  0
    0.3936    0.4472    0.6581 C   0  0  0  0  0  0  0  0  0  0  0  0
   -0.3935    0.4470   -0.6581 C   0  0  0  0  0  0  0  0  0  0  0  0
    1.9053    0.4845    0.4527 C   0  0  0  0  0  0  0  0  0  0  0  0
   -1.9052    0.4843   -0.4529 C   0  0  0  0  0  0  0  0  0  0  0  0
    0.1451   -0.4372    1.2556 H   0  0  0  0  0  0  0  0  0  0  0  0
    0.1017    1.3220    1.2518 H   0  0  0  0  0  0  0  0  0  0  0  0
   -0.1449   -0.4377   -1.2552 H   0  0  0  0  0  0  0  0  0  0  0  0
   -0.1016    1.3216   -1.2521 H   0  0  0  0  0  0  0  0  0  0  0  0
    2.2014    1.3792   -0.1033 H   0  0  0  0  0  0  0  0  0  0  0  0
    2.4192    0.4961    1.4185 H   0  0  0  0  0  0  0  0  0  0  0  0
   -2.2013    1.3793    0.1027 H   0  0  0  0  0  0  0  0  0  0  0  0
   -2.4190    0.4955   -1.4188 H   0  0  0  0  0  0  0  0  0  0  0  0
  1  5  1  0  0  0  0
  2  6  1  0  0  0  0
  3  4  1  0  0  0  0
  3  5  1  0  0  0  0
  3  7  1  0  0  0  0
  3  8  1  0  0  0  0
  4  6  1  0  0  0  0
  4  9  1  0  0  0  0
  4 10  1  0  0  0  0
  5 11  1  0  0  0  0
  5 12  1  0  0  0  0
  6 13  1  0  0  0  0
  6 14  1  0  0  0  0
M  END
> <PUBCHEM_COMPOUND_CID>
8059

> <PUBCHEM_CONFORMER_RMSD>
0.4

> <PUBCHEM_CONFORMER_DIVERSEORDER>
1
6
3
14
9
10
12
13
2
4
7
11
8
5

> <PUBCHEM_MMFF94_PARTIAL_CHARGES>
4
1 -0.29
2 -0.29
5 0.29
6 0.29

> <PUBCHEM_EFFECTIVE_ROTOR_COUNT>
3

> <PUBCHEM_PHARMACOPHORE_FEATURES>
0

> <PUBCHEM_HEAVY_ATOM_COUNT>
6

> <PUBCHEM_ATOM_DEF_STEREO_COUNT>
0

> <PUBCHEM_ATOM_UDEF_STEREO_COUNT>
0

> <PUBCHEM_BOND_DEF_STEREO_COUNT>
0

> <PUBCHEM_BOND_UDEF_STEREO_COUNT>
0

> <PUBCHEM_ISOTOPIC_ATOM_COUNT>
0

> <PUBCHEM_COMPONENT_COUNT>
1

> <PUBCHEM_CACTVS_TAUTO_COUNT>
1

> <PUBCHEM_CONFORMER_ID>
00001F7B00000001

> <PUBCHEM_MMFF94_ENERGY>
0.2439

> <PUBCHEM_FEATURE_SELFOVERLAP>
0

> <PUBCHEM_SHAPE_FINGERPRINT>
12932741 1 18335688451655052485
14390081 3 9655581798743714663
16714656 1 17675924283283891147
20096714 4 13398361217138350201
23552423 10 15865179196578473035
29004967 10 18273491286574508192
5460574 1 9583524238875595072

> <PUBCHEM_SHAPE_MULTIPOLES>
127.22
4.04
1.08
0.91
0
0.22
0
1.38
0
0
0
0
-0.04
0.53

> <PUBCHEM_SHAPE_SELFOVERLAP>
202.074

> <PUBCHEM_SHAPE_VOLUME>
89.4

> <PUBCHEM_COORDINATE_TYPE>
2
5
10

$$$$
