688400
  -OEChem-06212212523D

 29 29  0     1  0  0  0  0  0999 V2000
    0.4393    2.5468   -0.2719 O   0  0  0  0  0  0  0  0  0  0  0  0
   -3.4533    1.4754    0.2081 O   0  5  0  0  0  0  0  0  0  0  0  0
   -1.9467    3.0571   -0.0108 O   0  0  0  0  0  0  0  0  0  0  0  0
   -0.0513   -3.7076   -0.0367 O   0  5  0  0  0  0  0  0  0  0  0  0
   -2.1624   -3.1512    0.1917 O   0  0  0  0  0  0  0  0  0  0  0  0
   -2.2649    1.8465    0.0602 N   0  3  0  0  0  0  0  0  0  0  0  0
   -0.9556   -2.8415    0.0430 N   0  3  0  0  0  0  0  0  0  0  0  0
    2.5153    0.6216   -0.4565 C   0  0  1  0  0  0  0  0  0  0  0  0
    1.0555    0.2417   -0.2774 C   0  0  0  0  0  0  0  0  0  0  0  0
    3.4173    0.1371    0.6969 C   0  0  0  0  0  0  0  0  0  0  0  0
    3.0490    0.0942   -1.7939 C   0  0  0  0  0  0  0  0  0  0  0  0
    0.0920    1.2289   -0.1945 C   0  0  0  0  0  0  0  0  0  0  0  0
    0.7329   -1.1005   -0.2019 C   0  0  0  0  0  0  0  0  0  0  0  0
    2.9691    0.6467    2.0614 C   0  0  0  0  0  0  0  0  0  0  0  0
   -1.2434    0.8611   -0.0297 C   0  0  0  0  0  0  0  0  0  0  0  0
   -0.6023   -1.4684   -0.0371 C   0  0  0  0  0  0  0  0  0  0  0  0
   -1.5905   -0.4877    0.0490 C   0  0  0  0  0  0  0  0  0  0  0  0
    2.6410    1.7086   -0.4858 H   0  0  0  0  0  0  0  0  0  0  0  0
    4.4431    0.4836    0.5173 H   0  0  0  0  0  0  0  0  0  0  0  0
    3.4640   -0.9582    0.7271 H   0  0  0  0  0  0  0  0  0  0  0  0
    2.4290    0.4425   -2.6277 H   0  0  0  0  0  0  0  0  0  0  0  0
    4.0698    0.4526   -1.9673 H   0  0  0  0  0  0  0  0  0  0  0  0
    3.0760   -1.0002   -1.8302 H   0  0  0  0  0  0  0  0  0  0  0  0
    1.5132   -1.8530   -0.2690 H   0  0  0  0  0  0  0  0  0  0  0  0
    3.6965    0.3552    2.8259 H   0  0  0  0  0  0  0  0  0  0  0  0
    2.8939    1.7387    2.0670 H   0  0  0  0  0  0  0  0  0  0  0  0
    2.0004    0.2303    2.3534 H   0  0  0  0  0  0  0  0  0  0  0  0
   -2.6308   -0.7779    0.1774 H   0  0  0  0  0  0  0  0  0  0  0  0
    1.0475    2.6623   -1.0211 H   0  0  0  0  0  0  0  0  0  0  0  0
  1 12  1  0  0  0  0
  1 29  1  0  0  0  0
  2  6  1  0  0  0  0
  3  6  2  0  0  0  0
  4  7  1  0  0  0  0
  5  7  2  0  0  0  0
  6 15  1  0  0  0  0
  7 16  1  0  0  0  0
  8  9  1  0  0  0  0
  8 10  1  0  0  0  0
  8 11  1  0  0  0  0
  8 18  1  0  0  0  0
  9 12  2  0  0  0  0
  9 13  1  0  0  0  0
 10 14  1  0  0  0  0
 10 19  1  0  0  0  0
 10 20  1  0  0  0  0
 11 21  1  0  0  0  0
 11 22  1  0  0  0  0
 11 23  1  0  0  0  0
 12 15  1  0  0  0  0
 13 16  2  0  0  0  0
 13 24  1  0  0  0  0
 14 25  1  0  0  0  0
 14 26  1  0  0  0  0
 14 27  1  0  0  0  0
 15 17  2  0  0  0  0
 16 17  1  0  0  0  0
 17 28  1  0  0  0  0
M  CHG  4   2  -1   4  -1   6   1   7   1
M  END
> <PUBCHEM_COMPOUND_CID>
688400

> <PUBCHEM_CONFORMER_RMSD>
0.6

> <PUBCHEM_CONFORMER_DIVERSEORDER>
1
4
5
2
3

> <PUBCHEM_MMFF94_PARTIAL_CHARGES>
17
1 -0.53
12 0.08
13 -0.15
15 0.13
16 0.13
17 -0.15
2 -0.52
24 0.15
28 0.15
29 0.45
3 -0.52
4 -0.52
5 -0.52
6 0.91
7 0.91
8 0.14
9 -0.14

> <PUBCHEM_EFFECTIVE_ROTOR_COUNT>
4

> <PUBCHEM_PHARMACOPHORE_FEATURES>
10
1 1 donor
1 11 hydrophobe
1 14 hydrophobe
1 2 acceptor
1 2 anion
1 3 acceptor
1 4 acceptor
1 4 anion
1 5 acceptor
6 9 12 13 15 16 17 rings

> <PUBCHEM_HEAVY_ATOM_COUNT>
17

> <PUBCHEM_ATOM_DEF_STEREO_COUNT>
1

> <PUBCHEM_ATOM_UDEF_STEREO_COUNT>
0

> <PUBCHEM_BOND_DEF_STEREO_COUNT>
0

> <PUBCHEM_BOND_UDEF_STEREO_COUNT>
0

> <PUBCHEM_ISOTOPIC_ATOM_COUNT>
0

> <PUBCHEM_COMPONENT_COUNT>
1

> <PUBCHEM_CACTVS_TAUTO_COUNT>
6

> <PUBCHEM_CONFORMER_ID>
000A811000000001

> <PUBCHEM_MMFF94_ENERGY>
55.7109

> <PUBCHEM_FEATURE_SELFOVERLAP>
50.909

> <PUBCHEM_SHAPE_FINGERPRINT>
10967382 1 18193844734390466311
11680611 10 18188765192691937712
116883 192 18126011708913702847
12553582 1 17905333179694512646
12716301 132 18411706503940669674
13140716 1 18122345950089381379
13538477 17 18187363263905945964
14022347 108 17974870658621619354
14817 1 13818216238985039942
15279308 132 18270402668486764840
15309172 13 18338251357556939193
16752209 62 18336264647240382135
16945 1 18338238266221866030
193761 8 17978517755960232565
19591789 44 18194418705288374711
20388701 513 18125996307139685274
20510252 161 18343587360237112784
20645476 183 18042425593782294316
20645477 70 17756710737559471997
20711985 344 18192445270910772198
21524375 3 18128532674105898781
21650355 55 18049979371904060154
22112679 90 17967526922139153212
23184049 29 18121492724660463784
2334 1 18337959978327309751
23402539 116 18198885067633405919
23419403 2 13394930860728721399
23493267 7 17461189602286957440
23526113 38 17631469890460196726
23557571 272 18199197368049511004
23559900 14 18271257019830065214
23598291 2 17530690917989988444
23598294 1 18262528107647220026
257057 1 17690266531799713714
2748010 2 18265627476354577071
305870 269 18050559651691999704
3071541 236 18335971043265107779
34934 24 17403176392192563086
352729 6 18409454699810775101
43471831 8 18192714436489769113
458136 41 17906480751916276929
58807428 26 18194107534775605898
5902787 121 17471001953365034146
7364860 26 17548128931403011145
77492 1 17603865641706511748
81228 2 18269840985211300227
84936 182 17696466291353679265
88987 49 18409731789889796100

> <PUBCHEM_SHAPE_MULTIPOLES>
310.54
4.62
3.57
1.14
1.85
1.86
-0.17
-1.1
-0.63
-3.72
-0.05
1.59
-0.1
0.18

> <PUBCHEM_SHAPE_SELFOVERLAP>
648.861

> <PUBCHEM_SHAPE_VOLUME>
177.1

> <PUBCHEM_COORDINATE_TYPE>
2
5
10

$$$$
