53479
  -OEChem-06212212563D

 23 23  0     0  0  0  0  0  0999 V2000
    2.5207   -1.7128   -0.1438 Cl  0  0  0  0  0  0  0  0  0  0  0  0
   -0.3180   -2.5811   -0.2145 O   0  0  0  0  0  0  0  0  0  0  0  0
   -2.1882    1.8104   -0.3390 O   0  0  0  0  0  0  0  0  0  0  0  0
   -2.5137   -0.9380   -0.3051 O   0  0  0  0  0  0  0  0  0  0  0  0
    2.9660    2.1118    0.7054 O   0  0  0  0  0  0  0  0  0  0  0  0
   -0.1422   -1.2278   -0.2308 C   0  0  0  0  0  0  0  0  0  0  0  0
   -1.1027    0.9882   -0.2937 C   0  0  0  0  0  0  0  0  0  0  0  0
   -1.2621   -0.3975   -0.2769 C   0  0  0  0  0  0  0  0  0  0  0  0
    1.2963    0.7132   -0.2186 C   0  0  0  0  0  0  0  0  0  0  0  0
    1.1370   -0.6724   -0.2017 C   0  0  0  0  0  0  0  0  0  0  0  0
    0.1764    1.5435   -0.2645 C   0  0  0  0  0  0  0  0  0  0  0  0
    2.6114    1.3425   -0.1891 C   0  0  0  0  0  0  0  0  0  0  0  0
   -0.4384   -3.2011    1.0630 C   0  0  0  0  0  0  0  0  0  0  0  0
   -2.7424    2.2212    0.9092 C   0  0  0  0  0  0  0  0  0  0  0  0
    0.2924    2.6250   -0.2802 H   0  0  0  0  0  0  0  0  0  0  0  0
    3.3128    1.0365   -0.9838 H   0  0  0  0  0  0  0  0  0  0  0  0
   -2.4335   -1.9065   -0.3439 H   0  0  0  0  0  0  0  0  0  0  0  0
   -1.3338   -2.8443    1.5818 H   0  0  0  0  0  0  0  0  0  0  0  0
    0.4462   -3.0116    1.6785 H   0  0  0  0  0  0  0  0  0  0  0  0
   -0.5318   -4.2801    0.9115 H   0  0  0  0  0  0  0  0  0  0  0  0
   -3.0793    1.3541    1.4860 H   0  0  0  0  0  0  0  0  0  0  0  0
   -3.6044    2.8627    0.7068 H   0  0  0  0  0  0  0  0  0  0  0  0
   -2.0079    2.7932    1.4849 H   0  0  0  0  0  0  0  0  0  0  0  0
  1 10  1  0  0  0  0
  2  6  1  0  0  0  0
  2 13  1  0  0  0  0
  3  7  1  0  0  0  0
  3 14  1  0  0  0  0
  4  8  1  0  0  0  0
  4 17  1  0  0  0  0
  5 12  2  0  0  0  0
  6  8  1  0  0  0  0
  6 10  2  0  0  0  0
  7  8  2  0  0  0  0
  7 11  1  0  0  0  0
  9 10  1  0  0  0  0
  9 11  2  0  0  0  0
  9 12  1  0  0  0  0
 11 15  1  0  0  0  0
 12 16  1  0  0  0  0
 13 18  1  0  0  0  0
 13 19  1  0  0  0  0
 13 20  1  0  0  0  0
 14 21  1  0  0  0  0
 14 22  1  0  0  0  0
 14 23  1  0  0  0  0
M  END
> <PUBCHEM_COMPOUND_CID>
53479

> <PUBCHEM_CONFORMER_RMSD>
0.6

> <PUBCHEM_CONFORMER_DIVERSEORDER>
1
2
4
3

> <PUBCHEM_MMFF94_PARTIAL_CHARGES>
17
1 -0.18
10 0.18
11 -0.15
12 0.42
13 0.28
14 0.28
15 0.15
16 0.06
17 0.45
2 -0.36
3 -0.36
4 -0.53
5 -0.57
6 0.08
7 0.08
8 0.08
9 0.09

> <PUBCHEM_EFFECTIVE_ROTOR_COUNT>
3

> <PUBCHEM_PHARMACOPHORE_FEATURES>
5
1 2 acceptor
1 3 acceptor
1 4 donor
1 5 acceptor
6 6 7 8 9 10 11 rings

> <PUBCHEM_HEAVY_ATOM_COUNT>
14

> <PUBCHEM_ATOM_DEF_STEREO_COUNT>
0

> <PUBCHEM_ATOM_UDEF_STEREO_COUNT>
0

> <PUBCHEM_BOND_DEF_STEREO_COUNT>
0

> <PUBCHEM_BOND_UDEF_STEREO_COUNT>
0

> <PUBCHEM_ISOTOPIC_ATOM_COUNT>
0

> <PUBCHEM_COMPONENT_COUNT>
1

> <PUBCHEM_CACTVS_TAUTO_COUNT>
5

> <PUBCHEM_CONFORMER_ID>
0000D0E700000001

> <PUBCHEM_MMFF94_ENERGY>
61.2178

> <PUBCHEM_FEATURE_SELFOVERLAP>
25.373

> <PUBCHEM_SHAPE_FINGERPRINT>
10967382 1 18194400219527105957
12382932 28 17977950407759593338
12423570 1 16546954832045180454
13140716 1 18338235946934479001
13380535 21 18339092522580448204
13380535 76 18339349885684319814
14817 1 8555773676300401789
15490181 7 18265894653438069357
15490181 8 18410571829452519004
16945 1 18193000541267268588
193761 8 18410855477545641830
20510252 161 18199467851424351961
20511035 2 18337404763578229806
20588541 1 18121779697063522599
20871998 184 17837212945458762870
21501502 16 18412262822380131380
21524375 3 18342735178654137757
22344851 341 18339920407374920763
2334 1 18410011043798657044
23419403 2 14789333328393293198
2748010 2 18408324362917937749
3071541 236 18118383262637562264
568465 68 17684688374336024250
58807428 26 18265318535172635896
7364860 26 18125439700599596580
81228 2 18193278726283238529

> <PUBCHEM_SHAPE_MULTIPOLES>
266.51
3.86
3.4
0.82
1.77
1.08
0.14
-1.65
0.51
-1.63
0.93
0.1
0.09
-0.15

> <PUBCHEM_SHAPE_SELFOVERLAP>
547.828

> <PUBCHEM_SHAPE_VOLUME>
156.3

> <PUBCHEM_COORDINATE_TYPE>
2
5
10

$$$$
