7523
  -OEChem-06212212563D

 17 17  0     0  0  0  0  0  0999 V2000
   -0.0739   -1.1997    0.1580 N   0  0  0  0  0  0  0  0  0  0  0  0
    1.9818    0.0150    0.5598 C   0  0  0  0  0  0  0  0  0  0  0  0
    0.5160    0.0106    0.2790 C   0  0  0  0  0  0  0  0  0  0  0  0
    2.8167    0.0259   -0.7177 C   0  0  0  0  0  0  0  0  0  0  0  0
   -0.1555    1.2166    0.1579 C   0  0  0  0  0  0  0  0  0  0  0  0
   -1.5205    1.1778   -0.1044 C   0  0  0  0  0  0  0  0  0  0  0  0
   -2.1630   -0.0484   -0.2357 C   0  0  0  0  0  0  0  0  0  0  0  0
   -1.4016   -1.1977   -0.0970 C   0  0  0  0  0  0  0  0  0  0  0  0
    2.2478    0.8773    1.1832 H   0  0  0  0  0  0  0  0  0  0  0  0
    2.2393   -0.8753    1.1468 H   0  0  0  0  0  0  0  0  0  0  0  0
    2.5990   -0.8496   -1.3390 H   0  0  0  0  0  0  0  0  0  0  0  0
    3.8833    0.0136   -0.4727 H   0  0  0  0  0  0  0  0  0  0  0  0
    2.6144    0.9213   -1.3150 H   0  0  0  0  0  0  0  0  0  0  0  0
    0.3546    2.1684    0.2601 H   0  0  0  0  0  0  0  0  0  0  0  0
   -2.0825    2.1012   -0.2068 H   0  0  0  0  0  0  0  0  0  0  0  0
   -3.2261   -0.1027   -0.4403 H   0  0  0  0  0  0  0  0  0  0  0  0
   -1.8550   -2.1790   -0.1905 H   0  0  0  0  0  0  0  0  0  0  0  0
  1  3  1  0  0  0  0
  1  8  2  0  0  0  0
  2  3  1  0  0  0  0
  2  4  1  0  0  0  0
  2  9  1  0  0  0  0
  2 10  1  0  0  0  0
  3  5  2  0  0  0  0
  4 11  1  0  0  0  0
  4 12  1  0  0  0  0
  4 13  1  0  0  0  0
  5  6  1  0  0  0  0
  5 14  1  0  0  0  0
  6  7  2  0  0  0  0
  6 15  1  0  0  0  0
  7  8  1  0  0  0  0
  7 16  1  0  0  0  0
  8 17  1  0  0  0  0
M  END
> <PUBCHEM_COMPOUND_CID>
7523

> <PUBCHEM_CONFORMER_RMSD>
0.4

> <PUBCHEM_CONFORMER_DIVERSEORDER>
1
2
4
3

> <PUBCHEM_MMFF94_PARTIAL_CHARGES>
11
1 -0.62
14 0.15
15 0.15
16 0.15
17 0.15
2 0.14
3 0.17
5 -0.15
6 -0.15
7 -0.15
8 0.16

> <PUBCHEM_EFFECTIVE_ROTOR_COUNT>
1

> <PUBCHEM_PHARMACOPHORE_FEATURES>
3
1 1 acceptor
1 4 hydrophobe
6 1 3 5 6 7 8 rings

> <PUBCHEM_HEAVY_ATOM_COUNT>
8

> <PUBCHEM_ATOM_DEF_STEREO_COUNT>
0

> <PUBCHEM_ATOM_UDEF_STEREO_COUNT>
0

> <PUBCHEM_BOND_DEF_STEREO_COUNT>
0

> <PUBCHEM_BOND_UDEF_STEREO_COUNT>
0

> <PUBCHEM_ISOTOPIC_ATOM_COUNT>
0

> <PUBCHEM_COMPONENT_COUNT>
1

> <PUBCHEM_CACTVS_TAUTO_COUNT>
2

> <PUBCHEM_CONFORMER_ID>
00001D6300000001

> <PUBCHEM_MMFF94_ENERGY>
14.5991

> <PUBCHEM_FEATURE_SELFOVERLAP>
15.223

> <PUBCHEM_SHAPE_FINGERPRINT>
12897270 3 18411140251173072540
15310529 11 16805316686896443985
16714656 1 18410857659172535877
20645464 45 17916850405197000216
21040471 1 18267012856536540673
23552423 10 18188489051943555642
29004967 10 16343982515998624778
369184 2 18341606018998589968
5084963 1 18341612590224790720

> <PUBCHEM_SHAPE_MULTIPOLES>
159.66
3.33
1.3
0.74
1.77
0.01
-0.03
-0.04
-0.63
-0.57
0.02
0.25
0.01
0

> <PUBCHEM_SHAPE_SELFOVERLAP>
322.052

> <PUBCHEM_SHAPE_VOLUME>
93.7

> <PUBCHEM_COORDINATE_TYPE>
2
5
10

$$$$
