10722
  -OEChem-06212212553D

 17 17  0     0  0  0  0  0  0999 V2000
    2.8096    0.7664   -0.0005 O   0  0  0  0  0  0  0  0  0  0  0  0
   -0.3425   -1.0077    0.0004 C   0  0  0  0  0  0  0  0  0  0  0  0
    0.5503    0.0642    0.0005 C   0  0  0  0  0  0  0  0  0  0  0  0
   -1.7171   -0.7704    0.0001 C   0  0  0  0  0  0  0  0  0  0  0  0
    0.0683    1.3732    0.0002 C   0  0  0  0  0  0  0  0  0  0  0  0
    0.1464   -2.4196   -0.0004 C   0  0  0  0  0  0  0  0  0  0  0  0
   -2.1990    0.5385   -0.0003 C   0  0  0  0  0  0  0  0  0  0  0  0
   -1.3064    1.6103   -0.0002 C   0  0  0  0  0  0  0  0  0  0  0  0
    1.9903   -0.1549    0.0003 C   0  0  0  0  0  0  0  0  0  0  0  0
   -2.4268   -1.5934   -0.0001 H   0  0  0  0  0  0  0  0  0  0  0  0
    0.7424    2.2257    0.0001 H   0  0  0  0  0  0  0  0  0  0  0  0
    0.7418   -2.6243    0.8954 H   0  0  0  0  0  0  0  0  0  0  0  0
   -0.6847   -3.1340   -0.0005 H   0  0  0  0  0  0  0  0  0  0  0  0
    0.7411   -2.6235   -0.8969 H   0  0  0  0  0  0  0  0  0  0  0  0
   -3.2693    0.7235   -0.0007 H   0  0  0  0  0  0  0  0  0  0  0  0
   -1.6819    2.6294   -0.0005 H   0  0  0  0  0  0  0  0  0  0  0  0
    2.3592   -1.1918    0.0008 H   0  0  0  0  0  0  0  0  0  0  0  0
  1  9  2  0  0  0  0
  2  3  1  0  0  0  0
  2  4  2  0  0  0  0
  2  6  1  0  0  0  0
  3  5  2  0  0  0  0
  3  9  1  0  0  0  0
  4  7  1  0  0  0  0
  4 10  1  0  0  0  0
  5  8  1  0  0  0  0
  5 11  1  0  0  0  0
  6 12  1  0  0  0  0
  6 13  1  0  0  0  0
  6 14  1  0  0  0  0
  7  8  2  0  0  0  0
  7 15  1  0  0  0  0
  8 16  1  0  0  0  0
  9 17  1  0  0  0  0
M  END
> <PUBCHEM_COMPOUND_CID>
10722

> <PUBCHEM_CONFORMER_RMSD>
0.4

> <PUBCHEM_CONFORMER_DIVERSEORDER>
1
2

> <PUBCHEM_MMFF94_PARTIAL_CHARGES>
14
1 -0.57
10 0.15
11 0.15
15 0.15
16 0.15
17 0.06
2 -0.14
3 0.09
4 -0.15
5 -0.15
6 0.14
7 -0.15
8 -0.15
9 0.42

> <PUBCHEM_EFFECTIVE_ROTOR_COUNT>
1

> <PUBCHEM_PHARMACOPHORE_FEATURES>
2
1 1 acceptor
6 2 3 4 5 7 8 rings

> <PUBCHEM_HEAVY_ATOM_COUNT>
9

> <PUBCHEM_ATOM_DEF_STEREO_COUNT>
0

> <PUBCHEM_ATOM_UDEF_STEREO_COUNT>
0

> <PUBCHEM_BOND_DEF_STEREO_COUNT>
0

> <PUBCHEM_BOND_UDEF_STEREO_COUNT>
0

> <PUBCHEM_ISOTOPIC_ATOM_COUNT>
0

> <PUBCHEM_COMPONENT_COUNT>
1

> <PUBCHEM_CACTVS_TAUTO_COUNT>
1

> <PUBCHEM_CONFORMER_ID>
000029E200000001

> <PUBCHEM_MMFF94_ENERGY>
23.097

> <PUBCHEM_FEATURE_SELFOVERLAP>
10.148

> <PUBCHEM_SHAPE_FINGERPRINT>
13024252 1 14490463205705192500
16714656 1 18410576222839994348
16945 1 18410575093384979749
18185500 45 17473828806017112630
193761 8 17906452121722063589
20871998 184 18055923335874531734
21040471 1 18410856533996631808
23552423 10 18192153681027506087
241688 4 16321745640477234563
2748010 2 18410295765759996503
369184 2 18411414025120557456
5084963 1 18202845443828212808

> <PUBCHEM_SHAPE_MULTIPOLES>
179.35
2.85
2.05
0.61
0.97
0.92
0
-0.93
0
-0.02
0
-0.03
0.01
0

> <PUBCHEM_SHAPE_SELFOVERLAP>
372.672

> <PUBCHEM_SHAPE_VOLUME>
102.8

> <PUBCHEM_COORDINATE_TYPE>
2
5
10

$$$$
