11386
  -OEChem-06212212543D

 24 25  0     0  0  0  0  0  0999 V2000
    0.6190    0.7077    0.0000 C   0  0  0  0  0  0  0  0  0  0  0  0
    0.6190   -0.7076    0.0001 C   0  0  0  0  0  0  0  0  0  0  0  0
   -1.8137    0.6958    0.0001 C   0  0  0  0  0  0  0  0  0  0  0  0
   -1.8136   -0.6959    0.0002 C   0  0  0  0  0  0  0  0  0  0  0  0
   -0.6061    1.3945    0.0000 C   0  0  0  0  0  0  0  0  0  0  0  0
   -0.6060   -1.3944    0.0002 C   0  0  0  0  0  0  0  0  0  0  0  0
    1.8440    1.3944   -0.0001 C   0  0  0  0  0  0  0  0  0  0  0  0
    1.8440   -1.3944    0.0001 C   0  0  0  0  0  0  0  0  0  0  0  0
   -3.0951    1.4635    0.0001 C   0  0  0  0  0  0  0  0  0  0  0  0
   -3.0950   -1.4636   -0.0004 C   0  0  0  0  0  0  0  0  0  0  0  0
    3.0517    0.6959   -0.0002 C   0  0  0  0  0  0  0  0  0  0  0  0
    3.0518   -0.6958    0.0000 C   0  0  0  0  0  0  0  0  0  0  0  0
   -0.6115    2.4832    0.0000 H   0  0  0  0  0  0  0  0  0  0  0  0
   -0.6112   -2.4831    0.0001 H   0  0  0  0  0  0  0  0  0  0  0  0
    1.8683    2.4822   -0.0001 H   0  0  0  0  0  0  0  0  0  0  0  0
    1.8683   -2.4822    0.0002 H   0  0  0  0  0  0  0  0  0  0  0  0
   -2.9210    2.5452   -0.0006 H   0  0  0  0  0  0  0  0  0  0  0  0
   -3.6832    1.2326    0.8942 H   0  0  0  0  0  0  0  0  0  0  0  0
   -3.6839    1.2316   -0.8934 H   0  0  0  0  0  0  0  0  0  0  0  0
   -3.6843   -1.2315    0.8926 H   0  0  0  0  0  0  0  0  0  0  0  0
   -2.9207   -2.5454    0.0008 H   0  0  0  0  0  0  0  0  0  0  0  0
   -3.6825   -1.2330   -0.8950 H   0  0  0  0  0  0  0  0  0  0  0  0
    3.9922    1.2391   -0.0003 H   0  0  0  0  0  0  0  0  0  0  0  0
    3.9923   -1.2390   -0.0001 H   0  0  0  0  0  0  0  0  0  0  0  0
  1  2  1  0  0  0  0
  1  5  1  0  0  0  0
  1  7  2  0  0  0  0
  2  6  1  0  0  0  0
  2  8  2  0  0  0  0
  3  4  1  0  0  0  0
  3  5  2  0  0  0  0
  3  9  1  0  0  0  0
  4  6  2  0  0  0  0
  4 10  1  0  0  0  0
  5 13  1  0  0  0  0
  6 14  1  0  0  0  0
  7 11  1  0  0  0  0
  7 15  1  0  0  0  0
  8 12  1  0  0  0  0
  8 16  1  0  0  0  0
  9 17  1  0  0  0  0
  9 18  1  0  0  0  0
  9 19  1  0  0  0  0
 10 20  1  0  0  0  0
 10 21  1  0  0  0  0
 10 22  1  0  0  0  0
 11 12  2  0  0  0  0
 11 23  1  0  0  0  0
 12 24  1  0  0  0  0
M  END
> <PUBCHEM_COMPOUND_CID>
11386

> <PUBCHEM_CONFORMER_RMSD>
0.4

> <PUBCHEM_CONFORMER_DIVERSEORDER>
1

> <PUBCHEM_MMFF94_PARTIAL_CHARGES>
16
10 0.14
11 -0.15
12 -0.15
13 0.15
14 0.15
15 0.15
16 0.15
23 0.15
24 0.15
3 -0.14
4 -0.14
5 -0.15
6 -0.15
7 -0.15
8 -0.15
9 0.14

> <PUBCHEM_EFFECTIVE_ROTOR_COUNT>
0

> <PUBCHEM_PHARMACOPHORE_FEATURES>
2
6 1 2 3 4 5 6 rings
6 1 2 7 8 11 12 rings

> <PUBCHEM_HEAVY_ATOM_COUNT>
12

> <PUBCHEM_ATOM_DEF_STEREO_COUNT>
0

> <PUBCHEM_ATOM_UDEF_STEREO_COUNT>
0

> <PUBCHEM_BOND_DEF_STEREO_COUNT>
0

> <PUBCHEM_BOND_UDEF_STEREO_COUNT>
0

> <PUBCHEM_ISOTOPIC_ATOM_COUNT>
0

> <PUBCHEM_COMPONENT_COUNT>
1

> <PUBCHEM_CACTVS_TAUTO_COUNT>
1

> <PUBCHEM_CONFORMER_ID>
00002C7A00000001

> <PUBCHEM_MMFF94_ENERGY>
35.2035

> <PUBCHEM_FEATURE_SELFOVERLAP>
10.175

> <PUBCHEM_SHAPE_FINGERPRINT>
10608611 8 18411415124447874192
10967382 1 18266740169004745831
11132069 177 18411695452905284536
11206711 2 18409448119804813909
12032990 46 18410581720393183278
12382932 28 18341610395522960904
12491281 212 18340781346422819849
13380535 21 18339091405772523293
13380535 76 18340202977921778071
13897977 150 18411133610942876581
14144814 61 18410292518801624482
14325111 11 18410573993799622368
15775835 57 18335145254213988348
16945 1 18411412878379977184
17844478 74 18187938321298289355
17990270 104 18411420600863258590
19973954 147 18410857663499249100
20201158 50 18341048514958360814
20871998 184 18201722877127455863
21501502 16 18409730664027914244
21501925 9 18337377327474978866
2334 1 18410575123386356357
23402655 69 18269823230439231557
23463225 33 18408040697702980672
23552423 10 18333170582896373510
23559900 14 18343022143659128454
2748010 2 18411138038943122701
3312278 4 18412830174527396488
369184 2 18411136935120703251
5084963 1 18272090534356426050
528886 8 18339074900097205840
53812653 166 18342452630040948864
63268167 104 18339646646185912464
6333449 129 18411979152675060901
8809292 202 18334301924537641698

> <PUBCHEM_SHAPE_MULTIPOLES>
246.95
5.01
1.87
0.62
0.15
0
0
0
0
0.55
0
0
0
0

> <PUBCHEM_SHAPE_SELFOVERLAP>
537.851

> <PUBCHEM_SHAPE_VOLUME>
126.2

> <PUBCHEM_COORDINATE_TYPE>
2
5
10

$$$$
