36613
  -OEChem-06212212523D

 22 24  0     0  0  0  0  0  0999 V2000
   -5.2329   -0.8336    0.0004 Cl  0  0  0  0  0  0  0  0  0  0  0  0
    5.2330    0.8337    0.0010 Cl  0  0  0  0  0  0  0  0  0  0  0  0
   -0.1993   -1.4129   -0.0002 O   0  0  0  0  0  0  0  0  0  0  0  0
    0.1992    1.4129   -0.0003 O   0  0  0  0  0  0  0  0  0  0  0  0
   -1.2476   -0.5279   -0.0001 C   0  0  0  0  0  0  0  0  0  0  0  0
    1.2476    0.5280   -0.0003 C   0  0  0  0  0  0  0  0  0  0  0  0
   -1.0530    0.8524   -0.0002 C   0  0  0  0  0  0  0  0  0  0  0  0
    1.0529   -0.8525   -0.0001 C   0  0  0  0  0  0  0  0  0  0  0  0
   -2.5389   -1.0542    0.0000 C   0  0  0  0  0  0  0  0  0  0  0  0
    2.5389    1.0542   -0.0004 C   0  0  0  0  0  0  0  0  0  0  0  0
   -2.1483    1.7152    0.0001 C   0  0  0  0  0  0  0  0  0  0  0  0
    2.1483   -1.7153    0.0000 C   0  0  0  0  0  0  0  0  0  0  0  0
   -3.6358   -0.1922    0.0001 C   0  0  0  0  0  0  0  0  0  0  0  0
    3.6359    0.1921   -0.0002 C   0  0  0  0  0  0  0  0  0  0  0  0
   -3.4409    1.1902    0.0002 C   0  0  0  0  0  0  0  0  0  0  0  0
    3.4409   -1.1902    0.0000 C   0  0  0  0  0  0  0  0  0  0  0  0
   -2.6833   -2.1319   -0.0001 H   0  0  0  0  0  0  0  0  0  0  0  0
    2.6833    2.1319   -0.0003 H   0  0  0  0  0  0  0  0  0  0  0  0
   -2.0040    2.7920    0.0001 H   0  0  0  0  0  0  0  0  0  0  0  0
    2.0041   -2.7920    0.0002 H   0  0  0  0  0  0  0  0  0  0  0  0
   -4.2885    1.8709    0.0003 H   0  0  0  0  0  0  0  0  0  0  0  0
    4.2886   -1.8708    0.0003 H   0  0  0  0  0  0  0  0  0  0  0  0
  1 13  1  0  0  0  0
  2 14  1  0  0  0  0
  3  5  1  0  0  0  0
  3  8  1  0  0  0  0
  4  6  1  0  0  0  0
  4  7  1  0  0  0  0
  5  7  2  0  0  0  0
  5  9  1  0  0  0  0
  6  8  2  0  0  0  0
  6 10  1  0  0  0  0
  7 11  1  0  0  0  0
  8 12  1  0  0  0  0
  9 13  2  0  0  0  0
  9 17  1  0  0  0  0
 10 14  2  0  0  0  0
 10 18  1  0  0  0  0
 11 15  2  0  0  0  0
 11 19  1  0  0  0  0
 12 16  2  0  0  0  0
 12 20  1  0  0  0  0
 13 15  1  0  0  0  0
 14 16  1  0  0  0  0
 15 21  1  0  0  0  0
 16 22  1  0  0  0  0
M  END
> <PUBCHEM_COMPOUND_CID>
36613

> <PUBCHEM_CONFORMER_RMSD>
0.4

> <PUBCHEM_CONFORMER_DIVERSEORDER>
1

> <PUBCHEM_MMFF94_PARTIAL_CHARGES>
22
1 -0.18
10 -0.15
11 -0.15
12 -0.15
13 0.18
14 0.18
15 -0.15
16 -0.15
17 0.15
18 0.15
19 0.15
2 -0.18
20 0.15
21 0.15
22 0.15
3 -0.17
4 -0.17
5 0.08
6 0.08
7 0.08
8 0.08
9 -0.15

> <PUBCHEM_EFFECTIVE_ROTOR_COUNT>
0.4

> <PUBCHEM_PHARMACOPHORE_FEATURES>
5
1 3 acceptor
1 4 acceptor
6 3 4 5 6 7 8 rings
6 5 7 9 11 13 15 rings
6 6 8 10 12 14 16 rings

> <PUBCHEM_HEAVY_ATOM_COUNT>
16

> <PUBCHEM_ATOM_DEF_STEREO_COUNT>
0

> <PUBCHEM_ATOM_UDEF_STEREO_COUNT>
0

> <PUBCHEM_BOND_DEF_STEREO_COUNT>
0

> <PUBCHEM_BOND_UDEF_STEREO_COUNT>
0

> <PUBCHEM_ISOTOPIC_ATOM_COUNT>
0

> <PUBCHEM_COMPONENT_COUNT>
1

> <PUBCHEM_CACTVS_TAUTO_COUNT>
1

> <PUBCHEM_CONFORMER_ID>
00008F0500000001

> <PUBCHEM_MMFF94_ENERGY>
44.2412

> <PUBCHEM_FEATURE_SELFOVERLAP>
25.449

> <PUBCHEM_SHAPE_FINGERPRINT>
10608611 8 18410289168796069020
10967382 1 18410575106143209638
11132069 177 18410007719567803360
11471102 20 18410290307157321526
11806522 49 18409166632096227255
12032990 46 18411422773932016111
13140716 1 18050286165285667177
13221675 6 18411136935115564910
13380535 76 18408605868249809922
13862211 1 18410851092231168579
14144814 61 18410856520985084034
14325111 11 18410856521006299840
15196674 1 18410575041713405952
15219456 202 18340206297588541574
15442244 35 18050567348489684970
15536298 74 18342176627168941262
16945 1 18338517555049660422
17802600 8 18411133645218179889
18186145 218 18041843900412439726
18522853 276 18411699893738035649
200 152 18201715159313622893
20510252 161 18272373027372508233
20645477 70 18342177713753917646
21267235 1 18410864256263732846
21501502 16 18338517417610713545
23402539 116 18411410748250486399
23402655 69 18341888554906277301
23463225 33 18408604725614104556
23557571 272 18131359604363424508
23559900 14 18053376605247145682
26918003 58 17967533506128806859
2748010 2 18338517434790576343
2871803 45 18334009480483345759
34934 24 18410285908926317455
3545911 37 18410857676711127174
4214541 1 18410855417263183681
4463277 17 18411702084930914369
474 4 17313957449481694956
474229 33 18410292544624500426
4990 188 17988372490212643908
5104073 3 18338797814550627274
537710 114 18410860979251061364
69090 78 18343298180352803967
7364860 26 18340486797724331120
77779 3 18411702041131876366
8809292 202 18187932823835479411
9709674 26 18410580565068294070

> <PUBCHEM_SHAPE_MULTIPOLES>
321.27
9.41
1.72
0.61
0
0
0
0
0
0
0
0
0
0

> <PUBCHEM_SHAPE_SELFOVERLAP>
701.397

> <PUBCHEM_SHAPE_VOLUME>
175.4

> <PUBCHEM_COORDINATE_TYPE>
2
5
10

$$$$
