144381
  -OEChem-06212212563D

 21 20  0     0  0  0  0  0  0999 V2000
   -0.4763    1.1974   -0.6335 O   0  0  0  0  0  0  0  0  0  0  0  0
   -1.6263   -0.4786    0.6150 O   0  0  0  0  0  0  0  0  0  0  0  0
    0.0076   -1.0864   -0.9853 O   0  0  0  0  0  0  0  0  0  0  0  0
    3.0575    0.7235    0.0124 N   0  0  0  0  0  0  0  0  0  0  0  0
   -0.3772   -0.1002   -0.0002 C   0  0  0  0  0  0  0  0  0  0  0  0
    0.7427    0.0346    1.0633 C   0  0  0  0  0  0  0  0  0  0  0  0
   -1.4674    1.2641   -1.6512 C   0  0  0  0  0  0  0  0  0  0  0  0
   -2.1392    0.4205    1.5876 C   0  0  0  0  0  0  0  0  0  0  0  0
    0.2412   -2.3952   -0.4829 C   0  0  0  0  0  0  0  0  0  0  0  0
    2.0375    0.4204    0.4749 C   0  0  0  0  0  0  0  0  0  0  0  0
    0.4767    0.8161    1.7853 H   0  0  0  0  0  0  0  0  0  0  0  0
    0.8477   -0.8872    1.6455 H   0  0  0  0  0  0  0  0  0  0  0  0
   -2.4628    1.0478   -1.2539 H   0  0  0  0  0  0  0  0  0  0  0  0
   -1.2311    0.5759   -2.4678 H   0  0  0  0  0  0  0  0  0  0  0  0
   -1.4728    2.2813   -2.0524 H   0  0  0  0  0  0  0  0  0  0  0  0
   -2.1379    1.4547    1.2334 H   0  0  0  0  0  0  0  0  0  0  0  0
   -1.5752    0.3379    2.5204 H   0  0  0  0  0  0  0  0  0  0  0  0
   -3.1729    0.1327    1.7993 H   0  0  0  0  0  0  0  0  0  0  0  0
    1.1907   -2.4452    0.0557 H   0  0  0  0  0  0  0  0  0  0  0  0
    0.3101   -3.0748   -1.3373 H   0  0  0  0  0  0  0  0  0  0  0  0
   -0.5797   -2.7324    0.1561 H   0  0  0  0  0  0  0  0  0  0  0  0
  1  5  1  0  0  0  0
  1  7  1  0  0  0  0
  2  5  1  0  0  0  0
  2  8  1  0  0  0  0
  3  5  1  0  0  0  0
  3  9  1  0  0  0  0
  4 10  3  0  0  0  0
  5  6  1  0  0  0  0
  6 10  1  0  0  0  0
  6 11  1  0  0  0  0
  6 12  1  0  0  0  0
  7 13  1  0  0  0  0
  7 14  1  0  0  0  0
  7 15  1  0  0  0  0
  8 16  1  0  0  0  0
  8 17  1  0  0  0  0
  8 18  1  0  0  0  0
  9 19  1  0  0  0  0
  9 20  1  0  0  0  0
  9 21  1  0  0  0  0
M  END
> <PUBCHEM_COMPOUND_CID>
144381

> <PUBCHEM_CONFORMER_RMSD>
0.6

> <PUBCHEM_CONFORMER_DIVERSEORDER>
1
3
5
4
2

> <PUBCHEM_MMFF94_PARTIAL_CHARGES>
10
1 -0.56
10 0.36
2 -0.56
3 -0.56
4 -0.56
5 0.84
6 0.2
7 0.28
8 0.28
9 0.28

> <PUBCHEM_EFFECTIVE_ROTOR_COUNT>
4

> <PUBCHEM_PHARMACOPHORE_FEATURES>
4
1 1 acceptor
1 2 acceptor
1 3 acceptor
1 4 acceptor

> <PUBCHEM_HEAVY_ATOM_COUNT>
10

> <PUBCHEM_ATOM_DEF_STEREO_COUNT>
0

> <PUBCHEM_ATOM_UDEF_STEREO_COUNT>
0

> <PUBCHEM_BOND_DEF_STEREO_COUNT>
0

> <PUBCHEM_BOND_UDEF_STEREO_COUNT>
0

> <PUBCHEM_ISOTOPIC_ATOM_COUNT>
0

> <PUBCHEM_COMPONENT_COUNT>
1

> <PUBCHEM_CACTVS_TAUTO_COUNT>
1

> <PUBCHEM_CONFORMER_ID>
000233FD00000001

> <PUBCHEM_MMFF94_ENERGY>
27.1405

> <PUBCHEM_FEATURE_SELFOVERLAP>
20.409

> <PUBCHEM_SHAPE_FINGERPRINT>
10702982 57 16415202234778644365
12423570 1 15886668343836755367
12932764 1 18263070167528735600
13024252 1 16081632478795754376
137420 1 12130795090870320889
15310529 11 17967530182024404360
20711978 78 17912656700139404135
5084963 1 18271790350639356322
528862 383 17915191117328005282
5943 1 8519662059601076503
68250623 7 17535992668327438659

> <PUBCHEM_SHAPE_MULTIPOLES>
183.21
2.91
1.71
1.48
1.53
1.22
0.01
-1.31
-0.67
0.15
0.7
-1.01
-0.34
0.4

> <PUBCHEM_SHAPE_SELFOVERLAP>
338.676

> <PUBCHEM_SHAPE_VOLUME>
112.8

> <PUBCHEM_COORDINATE_TYPE>
2
5
10

$$$$
