7732
  -OEChem-06212212573D

 18 18  0     0  0  0  0  0  0999 V2000
    2.3335   -0.5029   -0.0001 O   0  0  0  0  0  0  0  0  0  0  0  0
   -3.1626    0.3449   -0.0002 N   0  0  0  0  0  0  0  0  0  0  0  0
    0.9885   -0.2953    0.0002 C   0  0  0  0  0  0  0  0  0  0  0  0
   -1.7686    0.1300   -0.0001 C   0  0  0  0  0  0  0  0  0  0  0  0
    0.4834    1.0050    0.0002 C   0  0  0  0  0  0  0  0  0  0  0  0
    0.1152   -1.3828    0.0001 C   0  0  0  0  0  0  0  0  0  0  0  0
   -0.8951    1.2176    0.0001 C   0  0  0  0  0  0  0  0  0  0  0  0
   -1.2634   -1.1701   -0.0001 C   0  0  0  0  0  0  0  0  0  0  0  0
    3.1692    0.6535   -0.0003 C   0  0  0  0  0  0  0  0  0  0  0  0
    1.1045    1.8942    0.0003 H   0  0  0  0  0  0  0  0  0  0  0  0
    0.5028   -2.3979    0.0000 H   0  0  0  0  0  0  0  0  0  0  0  0
   -1.2776    2.2353    0.0002 H   0  0  0  0  0  0  0  0  0  0  0  0
   -1.9337   -2.0259   -0.0002 H   0  0  0  0  0  0  0  0  0  0  0  0
   -3.5294    1.2874    0.0003 H   0  0  0  0  0  0  0  0  0  0  0  0
   -3.7963   -0.4432    0.0000 H   0  0  0  0  0  0  0  0  0  0  0  0
    3.0333    1.2485    0.9092 H   0  0  0  0  0  0  0  0  0  0  0  0
    3.0328    1.2484   -0.9097 H   0  0  0  0  0  0  0  0  0  0  0  0
    4.2065    0.3027   -0.0006 H   0  0  0  0  0  0  0  0  0  0  0  0
  1  3  1  0  0  0  0
  1  9  1  0  0  0  0
  2  4  1  0  0  0  0
  2 14  1  0  0  0  0
  2 15  1  0  0  0  0
  3  5  2  0  0  0  0
  3  6  1  0  0  0  0
  4  7  2  0  0  0  0
  4  8  1  0  0  0  0
  5  7  1  0  0  0  0
  5 10  1  0  0  0  0
  6  8  2  0  0  0  0
  6 11  1  0  0  0  0
  7 12  1  0  0  0  0
  8 13  1  0  0  0  0
  9 16  1  0  0  0  0
  9 17  1  0  0  0  0
  9 18  1  0  0  0  0
M  END
> <PUBCHEM_COMPOUND_CID>
7732

> <PUBCHEM_CONFORMER_RMSD>
0.4

> <PUBCHEM_CONFORMER_DIVERSEORDER>
1

> <PUBCHEM_MMFF94_PARTIAL_CHARGES>
15
1 -0.36
10 0.15
11 0.15
12 0.15
13 0.15
14 0.4
15 0.4
2 -0.9
3 0.08
4 0.1
5 -0.15
6 -0.15
7 -0.15
8 -0.15
9 0.28

> <PUBCHEM_EFFECTIVE_ROTOR_COUNT>
1

> <PUBCHEM_PHARMACOPHORE_FEATURES>
4
1 1 acceptor
1 2 cation
1 2 donor
6 3 4 5 6 7 8 rings

> <PUBCHEM_HEAVY_ATOM_COUNT>
9

> <PUBCHEM_ATOM_DEF_STEREO_COUNT>
0

> <PUBCHEM_ATOM_UDEF_STEREO_COUNT>
0

> <PUBCHEM_BOND_DEF_STEREO_COUNT>
0

> <PUBCHEM_BOND_UDEF_STEREO_COUNT>
0

> <PUBCHEM_ISOTOPIC_ATOM_COUNT>
0

> <PUBCHEM_COMPONENT_COUNT>
1

> <PUBCHEM_CACTVS_TAUTO_COUNT>
1

> <PUBCHEM_CONFORMER_ID>
00001E3400000001

> <PUBCHEM_MMFF94_ENERGY>
40.4807

> <PUBCHEM_FEATURE_SELFOVERLAP>
20.297

> <PUBCHEM_SHAPE_FINGERPRINT>
10857977 72 18336822095255827280
14325111 11 18410855442953645313
15310529 11 16732691740558322088
16714656 1 18410575084705276982
16945 1 18410575080399786117
193761 8 17545882629152817441
20871998 184 18129387175035108295
21040471 1 18410573955092019783
21293036 1 18410284835432153733
23235685 24 18411414007866796193
23402655 69 18196072371615411349
23552423 10 18044374052898560028
2748010 2 18123185972440599349
29004967 10 17822300062871306049
369184 2 16226041215085850848
5084963 1 18200592484468296682

> <PUBCHEM_SHAPE_MULTIPOLES>
174.37
3.93
1.37
0.6
1.11
0.15
0
-0.73
0
-0.14
0
0.01
0
0

> <PUBCHEM_SHAPE_SELFOVERLAP>
358.621

> <PUBCHEM_SHAPE_VOLUME>
100.8

> <PUBCHEM_COORDINATE_TYPE>
2
5
10

$$$$
