15546
  -OEChem-06212212573D

 23 24  0     0  0  0  0  0  0999 V2000
   -3.4721   -1.9017    0.1744 Cl  0  0  0  0  0  0  0  0  0  0  0  0
   -0.5937   -2.0324    0.3835 O   0  0  0  0  0  0  0  0  0  0  0  0
   -0.0520    0.2154    0.0017 N   0  0  0  0  0  0  0  0  0  0  0  0
   -0.5092    1.5002   -0.1329 N   0  0  0  0  0  0  0  0  0  0  0  0
   -4.1238    1.1138   -0.2002 N   0  0  0  0  0  0  0  0  0  0  0  0
    1.3876    0.1184   -0.0127 C   0  0  0  0  0  0  0  0  0  0  0  0
   -0.9245   -0.8688    0.1565 C   0  0  0  0  0  0  0  0  0  0  0  0
    2.0045   -1.0403   -0.4851 C   0  0  0  0  0  0  0  0  0  0  0  0
    2.1632    1.1839    0.4447 C   0  0  0  0  0  0  0  0  0  0  0  0
   -2.3831   -0.5610    0.0588 C   0  0  0  0  0  0  0  0  0  0  0  0
   -2.8379    0.6832   -0.1018 C   0  0  0  0  0  0  0  0  0  0  0  0
   -1.7812    1.6997   -0.1745 C   0  0  0  0  0  0  0  0  0  0  0  0
    3.3962   -1.1335   -0.4999 C   0  0  0  0  0  0  0  0  0  0  0  0
    3.5548    1.0909    0.4299 C   0  0  0  0  0  0  0  0  0  0  0  0
    4.1713   -0.0680   -0.0425 C   0  0  0  0  0  0  0  0  0  0  0  0
    1.4375   -1.8753   -0.8841 H   0  0  0  0  0  0  0  0  0  0  0  0
    1.7151    2.0947    0.8329 H   0  0  0  0  0  0  0  0  0  0  0  0
   -2.1278    2.7416   -0.2812 H   0  0  0  0  0  0  0  0  0  0  0  0
    3.8768   -2.0321   -0.8756 H   0  0  0  0  0  0  0  0  0  0  0  0
    4.1588    1.9191    0.7887 H   0  0  0  0  0  0  0  0  0  0  0  0
    5.2549   -0.1399   -0.0553 H   0  0  0  0  0  0  0  0  0  0  0  0
   -4.8814    0.4440   -0.1525 H   0  0  0  0  0  0  0  0  0  0  0  0
   -4.3264    2.0982   -0.3195 H   0  0  0  0  0  0  0  0  0  0  0  0
  1 10  1  0  0  0  0
  2  7  2  0  0  0  0
  3  4  1  0  0  0  0
  3  6  1  0  0  0  0
  3  7  1  0  0  0  0
  4 12  2  0  0  0  0
  5 11  1  0  0  0  0
  5 22  1  0  0  0  0
  5 23  1  0  0  0  0
  6  8  2  0  0  0  0
  6  9  1  0  0  0  0
  7 10  1  0  0  0  0
  8 13  1  0  0  0  0
  8 16  1  0  0  0  0
  9 14  2  0  0  0  0
  9 17  1  0  0  0  0
 10 11  2  0  0  0  0
 11 12  1  0  0  0  0
 12 18  1  0  0  0  0
 13 15  2  0  0  0  0
 13 19  1  0  0  0  0
 14 15  1  0  0  0  0
 14 20  1  0  0  0  0
 15 21  1  0  0  0  0
M  END
> <PUBCHEM_COMPOUND_CID>
15546

> <PUBCHEM_CONFORMER_RMSD>
0.4

> <PUBCHEM_CONFORMER_DIVERSEORDER>
1
2
3

> <PUBCHEM_MMFF94_PARTIAL_CHARGES>
23
1 -0.14
10 0.15
11 0.11
12 0.38
13 -0.15
14 -0.15
15 -0.15
16 0.15
17 0.15
18 0.06
19 0.15
2 -0.57
20 0.15
21 0.15
22 0.4
23 0.4
3 -0.11
4 -0.51
5 -0.9
6 0.12
7 0.62
8 -0.15
9 -0.15

> <PUBCHEM_EFFECTIVE_ROTOR_COUNT>
1

> <PUBCHEM_PHARMACOPHORE_FEATURES>
6
1 2 acceptor
1 4 acceptor
1 5 cation
1 5 donor
6 3 4 7 10 11 12 rings
6 6 8 9 13 14 15 rings

> <PUBCHEM_HEAVY_ATOM_COUNT>
15

> <PUBCHEM_ATOM_DEF_STEREO_COUNT>
0

> <PUBCHEM_ATOM_UDEF_STEREO_COUNT>
0

> <PUBCHEM_BOND_DEF_STEREO_COUNT>
0

> <PUBCHEM_BOND_UDEF_STEREO_COUNT>
0

> <PUBCHEM_ISOTOPIC_ATOM_COUNT>
0

> <PUBCHEM_COMPONENT_COUNT>
1

> <PUBCHEM_CACTVS_TAUTO_COUNT>
3

> <PUBCHEM_CONFORMER_ID>
00003CBA00000001

> <PUBCHEM_MMFF94_ENERGY>
52.9559

> <PUBCHEM_FEATURE_SELFOVERLAP>
30.446

> <PUBCHEM_SHAPE_FINGERPRINT>
10608611 8 18412822503942814984
10967382 1 18338516322420452710
11132069 177 18409727361314361585
11471102 20 18272930492911012124
12032990 46 18337677515529310939
12932764 1 17458335321545724428
13214271 11 18341325677793096757
13296908 3 18411983580559626142
13380535 76 18412824668632575990
14144814 61 18410292501938246946
14325111 11 18411136935115447944
15196674 1 18411136948053090854
15219456 202 18343582962432902112
15536298 74 18343019986683309742
15775835 57 18187083905968213258
16945 1 18266172821231699275
17834074 16 18341896285762909878
18175812 5 18342175570158613284
18186145 218 18410292467320130132
19141452 34 18129668633612846679
200 152 17418087706879449925
20201158 50 18272934890836151974
20279233 1 18342177752212885550
20510252 161 18341614840882645225
20528008 55 18413103957191319124
20645477 70 17917428675093343582
20871998 184 18272091638374251719
21249577 43 18411419513893459440
21267235 1 18337681904780360422
21501502 16 18411702110241801692
221490 88 18412552020072160414
23402539 116 18409439302295035726
23402655 69 18201716215385363716
23557571 272 18342468078880024487
23559900 14 18341048528497383886
2748010 2 18410576210213633375
2871803 45 18336822078271649895
4028521 119 18335130947989266005
43471831 8 18187078429948929299
5104073 3 18411980273798650130
53812653 166 18411416181299505266
6333449 129 18411134744856200343
69090 78 18272364261354618039
7364860 26 18194397784608346314
8809292 202 18409453574492595658
9709674 26 18411986883695847742

> <PUBCHEM_SHAPE_MULTIPOLES>
289.75
7.44
1.94
0.68
1.15
0.24
0
0.16
0.11
-1.06
-0.04
0.13
0.03
0.66

> <PUBCHEM_SHAPE_SELFOVERLAP>
615.451

> <PUBCHEM_SHAPE_VOLUME>
161

> <PUBCHEM_COORDINATE_TYPE>
2
5
10

$$$$
