7583
  -OEChem-06212212583D

 23 24  0     0  0  0  0  0  0999 V2000
   -0.0017    1.3163    0.0000 O   0  0  0  0  0  0  0  0  0  0  0  0
   -1.1652    0.6124   -0.0492 C   0  0  0  0  0  0  0  0  0  0  0  0
    1.1826    0.6000    0.0499 C   0  0  0  0  0  0  0  0  0  0  0  0
   -1.2843   -0.4794   -0.9091 C   0  0  0  0  0  0  0  0  0  0  0  0
    1.2812   -0.4796    0.9089 C   0  0  0  0  0  0  0  0  0  0  0  0
   -2.2391    0.9830    0.7603 C   0  0  0  0  0  0  0  0  0  0  0  0
    2.2360    0.9833   -0.7602 C   0  0  0  0  0  0  0  0  0  0  0  0
   -2.4774   -1.2004   -0.9599 C   0  0  0  0  0  0  0  0  0  0  0  0
    2.4743   -1.2004    0.9596 C   0  0  0  0  0  0  0  0  0  0  0  0
   -3.4321    0.2619    0.7094 C   0  0  0  0  0  0  0  0  0  0  0  0
    3.4290    0.2623   -0.7095 C   0  0  0  0  0  0  0  0  0  0  0  0
   -3.5511   -0.8298   -0.1507 C   0  0  0  0  0  0  0  0  0  0  0  0
    3.5480   -0.8296    0.1504 C   0  0  0  0  0  0  0  0  0  0  0  0
   -0.4730   -0.7766   -1.5683 H   0  0  0  0  0  0  0  0  0  0  0  0
    0.4684   -0.7736    1.5664 H   0  0  0  0  0  0  0  0  0  0  0  0
   -2.1523    1.8323    1.4324 H   0  0  0  0  0  0  0  0  0  0  0  0
    2.1445    1.8328   -1.4301 H   0  0  0  0  0  0  0  0  0  0  0  0
   -2.5722   -2.0471   -1.6335 H   0  0  0  0  0  0  0  0  0  0  0  0
    2.5692   -2.0472    1.6331 H   0  0  0  0  0  0  0  0  0  0  0  0
   -4.2684    0.5505    1.3395 H   0  0  0  0  0  0  0  0  0  0  0  0
    4.2652    0.5511   -1.3394 H   0  0  0  0  0  0  0  0  0  0  0  0
   -4.4805   -1.3903   -0.1913 H   0  0  0  0  0  0  0  0  0  0  0  0
    4.4774   -1.3900    0.1909 H   0  0  0  0  0  0  0  0  0  0  0  0
  1  2  1  0  0  0  0
  1  3  1  0  0  0  0
  2  4  2  0  0  0  0
  2  6  1  0  0  0  0
  3  5  2  0  0  0  0
  3  7  1  0  0  0  0
  4  8  1  0  0  0  0
  4 14  1  0  0  0  0
  5  9  1  0  0  0  0
  5 15  1  0  0  0  0
  6 10  2  0  0  0  0
  6 16  1  0  0  0  0
  7 11  2  0  0  0  0
  7 17  1  0  0  0  0
  8 12  2  0  0  0  0
  8 18  1  0  0  0  0
  9 13  2  0  0  0  0
  9 19  1  0  0  0  0
 10 12  1  0  0  0  0
 10 20  1  0  0  0  0
 11 13  1  0  0  0  0
 11 21  1  0  0  0  0
 12 22  1  0  0  0  0
 13 23  1  0  0  0  0
M  END
> <PUBCHEM_COMPOUND_CID>
7583

> <PUBCHEM_CONFORMER_RMSD>
0.6

> <PUBCHEM_CONFORMER_DIVERSEORDER>
1
2
3

> <PUBCHEM_MMFF94_PARTIAL_CHARGES>
23
1 -0.17
10 -0.15
11 -0.15
12 -0.15
13 -0.15
14 0.15
15 0.15
16 0.15
17 0.15
18 0.15
19 0.15
2 0.08
20 0.15
21 0.15
22 0.15
23 0.15
3 0.08
4 -0.15
5 -0.15
6 -0.15
7 -0.15
8 -0.15
9 -0.15

> <PUBCHEM_EFFECTIVE_ROTOR_COUNT>
2

> <PUBCHEM_PHARMACOPHORE_FEATURES>
3
1 1 acceptor
6 2 4 6 8 10 12 rings
6 3 5 7 9 11 13 rings

> <PUBCHEM_HEAVY_ATOM_COUNT>
13

> <PUBCHEM_ATOM_DEF_STEREO_COUNT>
0

> <PUBCHEM_ATOM_UDEF_STEREO_COUNT>
0

> <PUBCHEM_BOND_DEF_STEREO_COUNT>
0

> <PUBCHEM_BOND_UDEF_STEREO_COUNT>
0

> <PUBCHEM_ISOTOPIC_ATOM_COUNT>
0

> <PUBCHEM_COMPONENT_COUNT>
1

> <PUBCHEM_CACTVS_TAUTO_COUNT>
1

> <PUBCHEM_CONFORMER_ID>
00001D9F00000001

> <PUBCHEM_MMFF94_ENERGY>
45.1915

> <PUBCHEM_FEATURE_SELFOVERLAP>
15.223

> <PUBCHEM_SHAPE_FINGERPRINT>
11578080 2 18194373715248057764
12346177 29 17346586483458869261
124424 183 15410897323141402194
12932764 1 18410571790423572129
13221675 6 18410858758663103598
13296908 3 16153426147098624291
13581323 91 17775565338249168255
13705890 14 16515402954585444418
14144814 61 18343864420097861771
15375462 189 18409731755023493344
15653759 3 16343985809974907187
16752209 62 18200860804450725207
17844478 74 16732989708293858509
18186145 218 15864069840917387056
190213 19 18410855464423135591
19049666 15 15553063025435126469
19422 9 18410580586516237063
200 152 18040427789449192835
20201158 50 17022623065530048794
20361792 2 18335691758727084021
20645464 45 15841831149004372135
20645477 70 17749659714844212435
20715346 28 15626221329401961256
21730867 7 17240203248508244290
22169311 14 15913327996080255286
22445834 79 18410854326420534019
22485316 2 18410853261104990689
2255824 54 18262804085382497740
232386 152 18202561804166866532
23402539 116 18114178602035954540
23402655 69 18040715835794581316
23463225 33 18341051834873167654
23559900 14 16988572264708425508
465052 167 18268720574969338359
474 4 18047472511231957028
581208 293 17967532406601296048
69090 78 14692563321758359733
7364860 26 17701534236872669136
74978 22 18200867482792690941
77492 1 18410578387493078949

> <PUBCHEM_SHAPE_MULTIPOLES>
261.66
6.67
1.3
1.06
0.02
0.03
0
1.37
0
0
0
0
0.12
-0.96

> <PUBCHEM_SHAPE_SELFOVERLAP>
566.214

> <PUBCHEM_SHAPE_VOLUME>
143.6

> <PUBCHEM_COORDINATE_TYPE>
2
5
10

$$$$
