14109
  -OEChem-06212212543D

 30 30  0     0  0  0  0  0  0999 V2000
    2.2879   -0.0635   -0.6397 C   0  0  0  0  0  0  0  0  0  0  0  0
    0.8971   -0.0035   -0.0051 C   0  0  0  0  0  0  0  0  0  0  0  0
    3.3869    0.0027    0.4220 C   0  0  0  0  0  0  0  0  0  0  0  0
   -0.2008   -0.0357   -1.0705 C   0  0  0  0  0  0  0  0  0  0  0  0
    4.7766   -0.0236   -0.2138 C   0  0  0  0  0  0  0  0  0  0  0  0
   -1.5759   -0.0129   -0.4539 C   0  0  0  0  0  0  0  0  0  0  0  0
    5.8713    0.0762    0.8365 C   0  0  0  0  0  0  0  0  0  0  0  0
   -2.2002   -1.2100   -0.1354 C   0  0  0  0  0  0  0  0  0  0  0  0
   -2.1955    1.2048   -0.2141 C   0  0  0  0  0  0  0  0  0  0  0  0
   -3.4727   -1.1890    0.4354 C   0  0  0  0  0  0  0  0  0  0  0  0
   -3.4680    1.2257    0.3569 C   0  0  0  0  0  0  0  0  0  0  0  0
   -4.1066    0.0288    0.6816 C   0  0  0  0  0  0  0  0  0  0  0  0
    2.3896   -0.9899   -1.2180 H   0  0  0  0  0  0  0  0  0  0  0  0
    2.4058    0.7711   -1.3417 H   0  0  0  0  0  0  0  0  0  0  0  0
    0.8052    0.9107    0.5950 H   0  0  0  0  0  0  0  0  0  0  0  0
    0.7745   -0.8478    0.6852 H   0  0  0  0  0  0  0  0  0  0  0  0
    3.2820   -0.8416    1.1142 H   0  0  0  0  0  0  0  0  0  0  0  0
    3.2716    0.9202    1.0118 H   0  0  0  0  0  0  0  0  0  0  0  0
   -0.0894    0.8166   -1.7531 H   0  0  0  0  0  0  0  0  0  0  0  0
   -0.0948   -0.9324   -1.6947 H   0  0  0  0  0  0  0  0  0  0  0  0
    4.9073   -0.9502   -0.7847 H   0  0  0  0  0  0  0  0  0  0  0  0
    4.8799    0.8094   -0.9189 H   0  0  0  0  0  0  0  0  0  0  0  0
    6.8565    0.0542    0.3603 H   0  0  0  0  0  0  0  0  0  0  0  0
    5.7883    1.0096    1.4024 H   0  0  0  0  0  0  0  0  0  0  0  0
    5.8158   -0.7595    1.5414 H   0  0  0  0  0  0  0  0  0  0  0  0
   -1.7140   -2.1635   -0.3213 H   0  0  0  0  0  0  0  0  0  0  0  0
   -1.7057    2.1423   -0.4616 H   0  0  0  0  0  0  0  0  0  0  0  0
   -3.9697   -2.1208    0.6889 H   0  0  0  0  0  0  0  0  0  0  0  0
   -3.9616    2.1739    0.5493 H   0  0  0  0  0  0  0  0  0  0  0  0
   -5.0972    0.0451    1.1265 H   0  0  0  0  0  0  0  0  0  0  0  0
  1  2  1  0  0  0  0
  1  3  1  0  0  0  0
  1 13  1  0  0  0  0
  1 14  1  0  0  0  0
  2  4  1  0  0  0  0
  2 15  1  0  0  0  0
  2 16  1  0  0  0  0
  3  5  1  0  0  0  0
  3 17  1  0  0  0  0
  3 18  1  0  0  0  0
  4  6  1  0  0  0  0
  4 19  1  0  0  0  0
  4 20  1  0  0  0  0
  5  7  1  0  0  0  0
  5 21  1  0  0  0  0
  5 22  1  0  0  0  0
  6  8  2  0  0  0  0
  6  9  1  0  0  0  0
  7 23  1  0  0  0  0
  7 24  1  0  0  0  0
  7 25  1  0  0  0  0
  8 10  1  0  0  0  0
  8 26  1  0  0  0  0
  9 11  2  0  0  0  0
  9 27  1  0  0  0  0
 10 12  2  0  0  0  0
 10 28  1  0  0  0  0
 11 12  1  0  0  0  0
 11 29  1  0  0  0  0
 12 30  1  0  0  0  0
M  END
> <PUBCHEM_COMPOUND_CID>
14109

> <PUBCHEM_CONFORMER_RMSD>
0.6

> <PUBCHEM_CONFORMER_DIVERSEORDER>
1
31
21
14
20
23
19
16
22
26
12
6
13
17
28
15
2
24
25
18
8
3
10
32
5
27
9
11
30
7
4
29

> <PUBCHEM_MMFF94_PARTIAL_CHARGES>
12
10 -0.15
11 -0.15
12 -0.15
26 0.15
27 0.15
28 0.15
29 0.15
30 0.15
4 0.14
6 -0.14
8 -0.15
9 -0.15

> <PUBCHEM_EFFECTIVE_ROTOR_COUNT>
5

> <PUBCHEM_PHARMACOPHORE_FEATURES>
3
1 7 hydrophobe
5 1 2 3 4 5 hydrophobe
6 6 8 9 10 11 12 rings

> <PUBCHEM_HEAVY_ATOM_COUNT>
12

> <PUBCHEM_ATOM_DEF_STEREO_COUNT>
0

> <PUBCHEM_ATOM_UDEF_STEREO_COUNT>
0

> <PUBCHEM_BOND_DEF_STEREO_COUNT>
0

> <PUBCHEM_BOND_UDEF_STEREO_COUNT>
0

> <PUBCHEM_ISOTOPIC_ATOM_COUNT>
0

> <PUBCHEM_COMPONENT_COUNT>
1

> <PUBCHEM_CACTVS_TAUTO_COUNT>
1

> <PUBCHEM_CONFORMER_ID>
0000371D00000001

> <PUBCHEM_MMFF94_ENERGY>
14.7012

> <PUBCHEM_FEATURE_SELFOVERLAP>
15.223

> <PUBCHEM_SHAPE_FINGERPRINT>
10014705 185 15984811662655478336
10680689 15 17775283880684442118
10912923 1 17822014224777547716
114248 4 8070025562825347998
12251169 10 18408044017591426917
13214271 11 18131068234156642829
13675066 3 18060137644053542638
14123238 8 17603305960260041390
1420 363 14851606566620120096
14251718 22 8430309143885406834
17834072 33 17894636989256420284
17834076 25 14405185071486773296
19050596 39 18187650223445130388
200 152 14996281426819204060
20279233 1 17846787299128756183
20432913 95 16588023489965721328
20645464 45 17989495117127618383
20645476 183 11815892336667086677
20645477 56 17489584571905238260
20645477 70 12252167555895320840
20767249 213 16988841683221247825
20828058 44 18334576845610224430
20871999 31 9511463286785074099
21119208 17 10375869671313253898
21650355 55 18336551611754554489
22485316 2 17313098635930689686
2297311 6 18341346525854579972
23402539 116 18333444361323403479
23402655 69 11815908833440914930
23403322 49 12684808909481576800
23559900 14 18126307271446390014
23590187 198 17603583011320464066
42 15 18260548918282491934
449060 50 17847064380733614068
57265010 4 18409733962784415435

> <PUBCHEM_SHAPE_MULTIPOLES>
246.95
11.28
1.1
0.91
15.41
0.01
-0.04
0.22
3.64
-1.37
0.05
0.18
0
0.07

> <PUBCHEM_SHAPE_SELFOVERLAP>
484.909

> <PUBCHEM_SHAPE_VOLUME>
144.7

> <PUBCHEM_COORDINATE_TYPE>
2
5
10

$$$$
