12083
  -OEChem-06212212563D

 20 20  0     0  0  0  0  0  0999 V2000
   -3.0655   -0.8848   -0.0003 O   0  0  0  0  0  0  0  0  0  0  0  0
   -3.0642    1.4171   -0.0010 O   0  0  0  0  0  0  0  0  0  0  0  0
    3.8883    0.8946   -0.0028 O   0  5  0  0  0  0  0  0  0  0  0  0
    3.7004   -1.2926   -0.0006 O   0  0  0  0  0  0  0  0  0  0  0  0
    3.1883   -0.1469   -0.0010 N   0  3  0  0  0  0  0  0  0  0  0  0
   -1.0057    0.2141    0.0016 C   0  0  0  0  0  0  0  0  0  0  0  0
    1.7738   -0.0252    0.0010 C   0  0  0  0  0  0  0  0  0  0  0  0
   -0.2072    1.3578    0.0014 C   0  0  0  0  0  0  0  0  0  0  0  0
   -0.4144   -1.0493    0.0017 C   0  0  0  0  0  0  0  0  0  0  0  0
    1.1825    1.2381    0.0009 C   0  0  0  0  0  0  0  0  0  0  0  0
    0.9753   -1.1689    0.0014 C   0  0  0  0  0  0  0  0  0  0  0  0
   -2.4545    0.3395    0.0005 C   0  0  0  0  0  0  0  0  0  0  0  0
   -4.4971   -0.8936   -0.0028 C   0  0  0  0  0  0  0  0  0  0  0  0
   -0.6478    2.3514    0.0012 H   0  0  0  0  0  0  0  0  0  0  0  0
   -0.9963   -1.9668    0.0016 H   0  0  0  0  0  0  0  0  0  0  0  0
    1.7730    2.1508    0.0004 H   0  0  0  0  0  0  0  0  0  0  0  0
    1.4017   -2.1689    0.0010 H   0  0  0  0  0  0  0  0  0  0  0  0
   -4.8312   -1.9344   -0.0028 H   0  0  0  0  0  0  0  0  0  0  0  0
   -4.8754   -0.4015   -0.9037 H   0  0  0  0  0  0  0  0  0  0  0  0
   -4.8786   -0.4006    0.8962 H   0  0  0  0  0  0  0  0  0  0  0  0
  1 12  1  0  0  0  0
  1 13  1  0  0  0  0
  2 12  2  0  0  0  0
  3  5  1  0  0  0  0
  4  5  2  0  0  0  0
  5  7  1  0  0  0  0
  6  8  2  0  0  0  0
  6  9  1  0  0  0  0
  6 12  1  0  0  0  0
  7 10  2  0  0  0  0
  7 11  1  0  0  0  0
  8 10  1  0  0  0  0
  8 14  1  0  0  0  0
  9 11  2  0  0  0  0
  9 15  1  0  0  0  0
 10 16  1  0  0  0  0
 11 17  1  0  0  0  0
 13 18  1  0  0  0  0
 13 19  1  0  0  0  0
 13 20  1  0  0  0  0
M  CHG  2   3  -1   5   1
M  END
> <PUBCHEM_COMPOUND_CID>
12083

> <PUBCHEM_CONFORMER_RMSD>
0.6

> <PUBCHEM_CONFORMER_DIVERSEORDER>
1
2

> <PUBCHEM_MMFF94_PARTIAL_CHARGES>
17
1 -0.43
10 -0.15
11 -0.15
12 0.63
13 0.28
14 0.15
15 0.15
16 0.15
17 0.15
2 -0.57
3 -0.52
4 -0.52
5 0.91
6 0.09
7 0.13
8 -0.15
9 -0.15

> <PUBCHEM_EFFECTIVE_ROTOR_COUNT>
3

> <PUBCHEM_PHARMACOPHORE_FEATURES>
5
1 2 acceptor
1 3 acceptor
1 3 anion
1 4 acceptor
6 6 7 8 9 10 11 rings

> <PUBCHEM_HEAVY_ATOM_COUNT>
13

> <PUBCHEM_ATOM_DEF_STEREO_COUNT>
0

> <PUBCHEM_ATOM_UDEF_STEREO_COUNT>
0

> <PUBCHEM_BOND_DEF_STEREO_COUNT>
0

> <PUBCHEM_BOND_UDEF_STEREO_COUNT>
0

> <PUBCHEM_ISOTOPIC_ATOM_COUNT>
0

> <PUBCHEM_COMPONENT_COUNT>
1

> <PUBCHEM_CACTVS_TAUTO_COUNT>
1

> <PUBCHEM_CONFORMER_ID>
00002F3300000001

> <PUBCHEM_MMFF94_ENERGY>
39.9491

> <PUBCHEM_FEATURE_SELFOVERLAP>
25.453

> <PUBCHEM_SHAPE_FINGERPRINT>
10219947 1 18413392042143712878
11062470 55 8286203846560233287
11471102 20 18410288125050054693
11543360 7 15719404965620727142
11806522 49 18337951298367229071
12032990 46 18411704266030638654
12932764 1 17060326423042526517
13581323 91 16773795917747910805
13690532 89 18409446985764863122
14144814 61 18410573976561536187
14252887 29 18059306416993837535
14325111 11 18410573972414385216
14993402 34 18335142015908685748
15196674 1 18410575067488510468
16945 1 18410853304165387971
18186145 218 18040996202843633878
18522853 276 18413671327014208769
193761 8 17690280838467392100
19422 9 18410859836810664680
200 152 18130498709093419047
20201158 50 18335422374368284491
20645477 70 18341047428289794487
21267235 1 18411145727003654350
21501925 9 18410005563415015072
23402539 116 18343293764851883383
23402655 69 18268414751907332301
23463225 33 18408885101263868694
2748010 2 17977950407796334478
3312278 4 18341050718566805545
5104073 3 18411418388617336089
7364860 26 18196654214259659000
8809292 202 18115030826437311987

> <PUBCHEM_SHAPE_MULTIPOLES>
239.08
7
1.49
0.58
1.39
0.13
0
-1.33
0.01
-0.01
0
0.04
0
0

> <PUBCHEM_SHAPE_SELFOVERLAP>
500.927

> <PUBCHEM_SHAPE_VOLUME>
135.8

> <PUBCHEM_COORDINATE_TYPE>
2
5
10

$$$$
