7747
  -OEChem-06212212593D

 12 11  0     0  0  0  0  0  0999 V2000
   -1.6923   -0.6456    0.0036 O   0  0  0  0  0  0  0  0  0  0  0  0
   -0.4210    1.2790   -0.0095 O   0  0  0  0  0  0  0  0  0  0  0  0
    2.9591    0.3073    0.0112 N   0  0  0  0  0  0  0  0  0  0  0  0
    0.6321   -0.9134   -0.0112 C   0  0  0  0  0  0  0  0  0  0  0  0
   -0.5213    0.0595   -0.0062 C   0  0  0  0  0  0  0  0  0  0  0  0
   -2.8869    0.1427    0.0105 C   0  0  0  0  0  0  0  0  0  0  0  0
    1.9304   -0.2295    0.0016 C   0  0  0  0  0  0  0  0  0  0  0  0
    0.5540   -1.5358   -0.9089 H   0  0  0  0  0  0  0  0  0  0  0  0
    0.5476   -1.5535    0.8735 H   0  0  0  0  0  0  0  0  0  0  0  0
   -3.7429   -0.5373    0.0180 H   0  0  0  0  0  0  0  0  0  0  0  0
   -2.9375    0.7612   -0.8907 H   0  0  0  0  0  0  0  0  0  0  0  0
   -2.9247    0.7650    0.9096 H   0  0  0  0  0  0  0  0  0  0  0  0
  1  5  1  0  0  0  0
  1  6  1  0  0  0  0
  2  5  2  0  0  0  0
  3  7  3  0  0  0  0
  4  5  1  0  0  0  0
  4  7  1  0  0  0  0
  4  8  1  0  0  0  0
  4  9  1  0  0  0  0
  6 10  1  0  0  0  0
  6 11  1  0  0  0  0
  6 12  1  0  0  0  0
M  END
> <PUBCHEM_COMPOUND_CID>
7747

> <PUBCHEM_CONFORMER_RMSD>
0.4

> <PUBCHEM_CONFORMER_DIVERSEORDER>
1
5
4
2
6
3

> <PUBCHEM_MMFF94_PARTIAL_CHARGES>
7
1 -0.43
2 -0.57
3 -0.56
4 0.26
5 0.66
6 0.28
7 0.36

> <PUBCHEM_EFFECTIVE_ROTOR_COUNT>
2

> <PUBCHEM_PHARMACOPHORE_FEATURES>
2
1 2 acceptor
1 3 acceptor

> <PUBCHEM_HEAVY_ATOM_COUNT>
7

> <PUBCHEM_ATOM_DEF_STEREO_COUNT>
0

> <PUBCHEM_ATOM_UDEF_STEREO_COUNT>
0

> <PUBCHEM_BOND_DEF_STEREO_COUNT>
0

> <PUBCHEM_BOND_UDEF_STEREO_COUNT>
0

> <PUBCHEM_ISOTOPIC_ATOM_COUNT>
0

> <PUBCHEM_COMPONENT_COUNT>
1

> <PUBCHEM_CACTVS_TAUTO_COUNT>
1

> <PUBCHEM_CONFORMER_ID>
00001E4300000001

> <PUBCHEM_MMFF94_ENERGY>
5.5707

> <PUBCHEM_FEATURE_SELFOVERLAP>
10.149

> <PUBCHEM_SHAPE_FINGERPRINT>
10857977 72 18338228370638373747
11062470 55 17748826315120983317
14390081 3 18343862208079090593
16714656 1 18343301474328767982
23552423 10 18117845403973040710
29004967 10 18333739013291387707
5460574 1 9223231844843208259

> <PUBCHEM_SHAPE_MULTIPOLES>
127.34
4.06
0.97
0.58
0.05
0.09
0
0.27
0.03
-0.03
0
-0.01
-0.01
0

> <PUBCHEM_SHAPE_SELFOVERLAP>
234.84

> <PUBCHEM_SHAPE_VOLUME>
78.8

> <PUBCHEM_COORDINATE_TYPE>
2
5
10

$$$$
