9893
  -OEChem-06212212553D

 11 10  0     0  0  0  0  0  0999 V2000
    1.0323    1.4540    0.0030 F   0  0  0  0  0  0  0  0  0  0  0  0
    1.6343   -0.3370    1.0897 F   0  0  0  0  0  0  0  0  0  0  0  0
    1.6347   -0.3328   -1.0903 F   0  0  0  0  0  0  0  0  0  0  0  0
   -1.3068    0.6883   -0.0024 O   0  0  0  0  0  0  0  0  0  0  0  0
   -0.7837   -1.5614    0.0002 O   0  0  0  0  0  0  0  0  0  0  0  0
    0.9530    0.0994    0.0004 C   0  0  0  0  0  0  0  0  0  0  0  0
   -0.4616   -0.3811   -0.0029 C   0  0  0  0  0  0  0  0  0  0  0  0
   -2.7023    0.3705    0.0023 C   0  0  0  0  0  0  0  0  0  0  0  0
   -2.9646   -0.1964   -0.8960 H   0  0  0  0  0  0  0  0  0  0  0  0
   -3.2646    1.3081    0.0023 H   0  0  0  0  0  0  0  0  0  0  0  0
   -2.9592   -0.1931    0.9043 H   0  0  0  0  0  0  0  0  0  0  0  0
  1  6  1  0  0  0  0
  2  6  1  0  0  0  0
  3  6  1  0  0  0  0
  4  7  1  0  0  0  0
  4  8  1  0  0  0  0
  5  7  2  0  0  0  0
  6  7  1  0  0  0  0
  8  9  1  0  0  0  0
  8 10  1  0  0  0  0
  8 11  1  0  0  0  0
M  END
> <PUBCHEM_COMPOUND_CID>
9893

> <PUBCHEM_CONFORMER_RMSD>
0.4

> <PUBCHEM_CONFORMER_DIVERSEORDER>
1

> <PUBCHEM_MMFF94_PARTIAL_CHARGES>
8
1 -0.34
2 -0.34
3 -0.34
4 -0.43
5 -0.57
6 1.08
7 0.66
8 0.28

> <PUBCHEM_EFFECTIVE_ROTOR_COUNT>
2

> <PUBCHEM_PHARMACOPHORE_FEATURES>
1
1 5 acceptor

> <PUBCHEM_HEAVY_ATOM_COUNT>
8

> <PUBCHEM_ATOM_DEF_STEREO_COUNT>
0

> <PUBCHEM_ATOM_UDEF_STEREO_COUNT>
0

> <PUBCHEM_BOND_DEF_STEREO_COUNT>
0

> <PUBCHEM_BOND_UDEF_STEREO_COUNT>
0

> <PUBCHEM_ISOTOPIC_ATOM_COUNT>
0

> <PUBCHEM_COMPONENT_COUNT>
1

> <PUBCHEM_CACTVS_TAUTO_COUNT>
1

> <PUBCHEM_CONFORMER_ID>
000026A500000001

> <PUBCHEM_MMFF94_ENERGY>
8.1255

> <PUBCHEM_FEATURE_SELFOVERLAP>
5.074

> <PUBCHEM_SHAPE_FINGERPRINT>
20096714 4 18408605885260640105
21040471 1 18410573963903500455
24536 1 18059859514318356665
29004967 10 15697994141549363691
5084963 1 17988369174065439233

> <PUBCHEM_SHAPE_MULTIPOLES>
131.08
2.75
1.15
0.78
1.5
0.08
0
-0.39
0
0.03
0
-0.38
0.07
0

> <PUBCHEM_SHAPE_SELFOVERLAP>
252.057

> <PUBCHEM_SHAPE_VOLUME>
80.7

> <PUBCHEM_COORDINATE_TYPE>
2
5
10

$$$$
