138975
  -OEChem-06212212523D

 24 24  0     0  0  0  0  0  0999 V2000
   -2.6349   -0.4056    1.7024 O   0  0  0  0  0  0  0  0  0  0  0  0
    3.9929    1.1237    0.0054 O   0  5  0  0  0  0  0  0  0  0  0  0
    3.9918   -1.0150   -0.4896 O   0  0  0  0  0  0  0  0  0  0  0  0
   -3.0629    0.1270   -0.5331 N   0  0  0  0  0  0  0  0  0  0  0  0
    3.3894    0.0365   -0.1638 N   0  3  0  0  0  0  0  0  0  0  0  0
   -0.7832   -0.0865    0.3792 C   0  0  0  0  0  0  0  0  0  0  0  0
   -2.2246   -0.1290    0.5674 C   0  0  0  0  0  0  0  0  0  0  0  0
   -0.0912    1.1107    0.5619 C   0  0  0  0  0  0  0  0  0  0  0  0
   -0.0927   -1.2429    0.0165 C   0  0  0  0  0  0  0  0  0  0  0  0
    1.9821   -0.0050    0.0192 C   0  0  0  0  0  0  0  0  0  0  0  0
    1.2914    1.1514    0.3818 C   0  0  0  0  0  0  0  0  0  0  0  0
    1.2899   -1.2023   -0.1635 C   0  0  0  0  0  0  0  0  0  0  0  0
   -4.5147    0.0872   -0.4276 C   0  0  0  0  0  0  0  0  0  0  0  0
   -2.5332    0.4500   -1.8562 C   0  0  0  0  0  0  0  0  0  0  0  0
   -0.6196    2.0176    0.8443 H   0  0  0  0  0  0  0  0  0  0  0  0
   -0.6225   -2.1809   -0.1287 H   0  0  0  0  0  0  0  0  0  0  0  0
    1.7973    2.1016    0.5325 H   0  0  0  0  0  0  0  0  0  0  0  0
    1.7945   -2.1227   -0.4461 H   0  0  0  0  0  0  0  0  0  0  0  0
   -4.8990   -0.6714   -1.1154 H   0  0  0  0  0  0  0  0  0  0  0  0
   -4.9163    1.0682   -0.6970 H   0  0  0  0  0  0  0  0  0  0  0  0
   -4.8277   -0.1607    0.5898 H   0  0  0  0  0  0  0  0  0  0  0  0
   -1.4452    0.4758   -1.9074 H   0  0  0  0  0  0  0  0  0  0  0  0
   -2.9163    1.4321   -2.1500 H   0  0  0  0  0  0  0  0  0  0  0  0
   -2.8949   -0.3017   -2.5646 H   0  0  0  0  0  0  0  0  0  0  0  0
  1  7  2  0  0  0  0
  2  5  1  0  0  0  0
  3  5  2  0  0  0  0
  4  7  1  0  0  0  0
  4 13  1  0  0  0  0
  4 14  1  0  0  0  0
  5 10  1  0  0  0  0
  6  7  1  0  0  0  0
  6  8  2  0  0  0  0
  6  9  1  0  0  0  0
  8 11  1  0  0  0  0
  8 15  1  0  0  0  0
  9 12  2  0  0  0  0
  9 16  1  0  0  0  0
 10 11  2  0  0  0  0
 10 12  1  0  0  0  0
 11 17  1  0  0  0  0
 12 18  1  0  0  0  0
 13 19  1  0  0  0  0
 13 20  1  0  0  0  0
 13 21  1  0  0  0  0
 14 22  1  0  0  0  0
 14 23  1  0  0  0  0
 14 24  1  0  0  0  0
M  CHG  2   2  -1   5   1
M  END
> <PUBCHEM_COMPOUND_CID>
138975

> <PUBCHEM_CONFORMER_RMSD>
0.6

> <PUBCHEM_CONFORMER_DIVERSEORDER>
1

> <PUBCHEM_MMFF94_PARTIAL_CHARGES>
18
1 -0.57
10 0.13
11 -0.15
12 -0.15
13 0.3
14 0.3
15 0.15
16 0.15
17 0.15
18 0.15
2 -0.52
3 -0.52
4 -0.66
5 0.91
6 0.09
7 0.54
8 -0.15
9 -0.15

> <PUBCHEM_EFFECTIVE_ROTOR_COUNT>
3

> <PUBCHEM_PHARMACOPHORE_FEATURES>
5
1 1 acceptor
1 2 acceptor
1 2 anion
1 3 acceptor
6 6 8 9 10 11 12 rings

> <PUBCHEM_HEAVY_ATOM_COUNT>
14

> <PUBCHEM_ATOM_DEF_STEREO_COUNT>
0

> <PUBCHEM_ATOM_UDEF_STEREO_COUNT>
0

> <PUBCHEM_BOND_DEF_STEREO_COUNT>
0

> <PUBCHEM_BOND_UDEF_STEREO_COUNT>
0

> <PUBCHEM_ISOTOPIC_ATOM_COUNT>
0

> <PUBCHEM_COMPONENT_COUNT>
1

> <PUBCHEM_CACTVS_TAUTO_COUNT>
1

> <PUBCHEM_CONFORMER_ID>
00021EDF00000001

> <PUBCHEM_MMFF94_ENERGY>
46.1071

> <PUBCHEM_FEATURE_SELFOVERLAP>
25.453

> <PUBCHEM_SHAPE_FINGERPRINT>
10219947 1 18342745117450683442
11401426 45 18202274806025769432
11471102 20 18413107264516467152
11543360 7 15267063709243489688
12138202 97 17531237362268325691
12236239 1 17346602967685762763
124424 183 17967810539824353890
12932764 1 17894627080086425402
13581323 91 15647055958415405347
13690532 89 18202563968851709982
13760787 5 18271818912351164416
13839132 238 16806714089229881263
14911166 2 18341896303079818774
14943859 89 16443062798675158529
14993402 34 17632577166776978828
15219456 202 17967532337681417827
15775835 57 18411694405017816455
16945 1 18342741818894740226
18175812 5 17894916264698100799
18186145 218 18113625564534697568
18534176 82 17458065967256672163
19026448 4 17385730209603790074
19026448 5 16271934800501548282
19422 9 16988851548803337726
200 152 17988921145734201358
20201158 50 18334296448570130387
20279233 1 18186523206588373514
20645477 56 16877662357439347005
20645477 70 18411418371944368510
21119208 17 17274818056525907645
21293036 1 18412541024349000373
23402539 116 17917992733512076612
23402655 69 18341039723840918037
23557571 272 17313397699062358135
23559900 14 17458063755675614458
25 1 18262511490703464741
2748010 2 18054230105279137290
77492 1 17275107227799078603

> <PUBCHEM_SHAPE_MULTIPOLES>
260.54
7.14
1.18
1.14
0.53
0.01
0.15
-0.11
1.51
0.84
-0.04
-1.24
-0.02
0.18

> <PUBCHEM_SHAPE_SELFOVERLAP>
540.638

> <PUBCHEM_SHAPE_VOLUME>
150.8

> <PUBCHEM_COORDINATE_TYPE>
2
5
10

$$$$
