7057
  -OEChem-06212212543D

 20 21  0     0  0  0  0  0  0999 V2000
   -3.4781   -0.7498   -0.0009 N   0  0  0  0  0  0  0  0  0  0  0  0
    0.2395   -0.6243    0.0003 C   0  0  0  0  0  0  0  0  0  0  0  0
    0.4562    0.7743    0.0002 C   0  0  0  0  0  0  0  0  0  0  0  0
   -1.0763   -1.1154    0.0004 C   0  0  0  0  0  0  0  0  0  0  0  0
   -0.6493    1.6405    0.0002 C   0  0  0  0  0  0  0  0  0  0  0  0
   -2.1628   -0.2402    0.0003 C   0  0  0  0  0  0  0  0  0  0  0  0
    1.3449   -1.4905    0.0002 C   0  0  0  0  0  0  0  0  0  0  0  0
    1.7719    1.2654   -0.0002 C   0  0  0  0  0  0  0  0  0  0  0  0
   -1.9497    1.1351    0.0001 C   0  0  0  0  0  0  0  0  0  0  0  0
    2.6453   -0.9852   -0.0002 C   0  0  0  0  0  0  0  0  0  0  0  0
    2.8584    0.3901   -0.0004 C   0  0  0  0  0  0  0  0  0  0  0  0
   -1.2533   -2.1899    0.0004 H   0  0  0  0  0  0  0  0  0  0  0  0
   -0.5062    2.7191    0.0000 H   0  0  0  0  0  0  0  0  0  0  0  0
    1.2021   -2.5692    0.0004 H   0  0  0  0  0  0  0  0  0  0  0  0
    1.9622    2.3367   -0.0003 H   0  0  0  0  0  0  0  0  0  0  0  0
   -2.7882    1.8269   -0.0002 H   0  0  0  0  0  0  0  0  0  0  0  0
    3.4916   -1.6660   -0.0004 H   0  0  0  0  0  0  0  0  0  0  0  0
    3.8710    0.7828   -0.0007 H   0  0  0  0  0  0  0  0  0  0  0  0
   -4.2664   -0.1162    0.0008 H   0  0  0  0  0  0  0  0  0  0  0  0
   -3.6341   -1.7490    0.0010 H   0  0  0  0  0  0  0  0  0  0  0  0
  1  6  1  0  0  0  0
  1 19  1  0  0  0  0
  1 20  1  0  0  0  0
  2  3  1  0  0  0  0
  2  4  1  0  0  0  0
  2  7  2  0  0  0  0
  3  5  1  0  0  0  0
  3  8  2  0  0  0  0
  4  6  2  0  0  0  0
  4 12  1  0  0  0  0
  5  9  2  0  0  0  0
  5 13  1  0  0  0  0
  6  9  1  0  0  0  0
  7 10  1  0  0  0  0
  7 14  1  0  0  0  0
  8 11  1  0  0  0  0
  8 15  1  0  0  0  0
  9 16  1  0  0  0  0
 10 11  2  0  0  0  0
 10 17  1  0  0  0  0
 11 18  1  0  0  0  0
M  END
> <PUBCHEM_COMPOUND_CID>
7057

> <PUBCHEM_CONFORMER_RMSD>
0.4

> <PUBCHEM_CONFORMER_DIVERSEORDER>
1

> <PUBCHEM_MMFF94_PARTIAL_CHARGES>
18
1 -0.9
10 -0.15
11 -0.15
12 0.15
13 0.15
14 0.15
15 0.15
16 0.15
17 0.15
18 0.15
19 0.4
20 0.4
4 -0.15
5 -0.15
6 0.1
7 -0.15
8 -0.15
9 -0.15

> <PUBCHEM_EFFECTIVE_ROTOR_COUNT>
0

> <PUBCHEM_PHARMACOPHORE_FEATURES>
4
1 1 cation
1 1 donor
6 2 3 4 5 6 9 rings
6 2 3 7 8 10 11 rings

> <PUBCHEM_HEAVY_ATOM_COUNT>
11

> <PUBCHEM_ATOM_DEF_STEREO_COUNT>
0

> <PUBCHEM_ATOM_UDEF_STEREO_COUNT>
0

> <PUBCHEM_BOND_DEF_STEREO_COUNT>
0

> <PUBCHEM_BOND_UDEF_STEREO_COUNT>
0

> <PUBCHEM_ISOTOPIC_ATOM_COUNT>
0

> <PUBCHEM_COMPONENT_COUNT>
1

> <PUBCHEM_CACTVS_TAUTO_COUNT>
1

> <PUBCHEM_CONFORMER_ID>
00001B9100000001

> <PUBCHEM_MMFF94_ENERGY>
41.4599

> <PUBCHEM_FEATURE_SELFOVERLAP>
20.324

> <PUBCHEM_SHAPE_FINGERPRINT>
10857977 72 18411127039531910240
11206711 2 18335985268101886013
11471102 20 18410288121140176797
12032990 46 18410300219704678115
12897270 3 18410011030934743636
12932764 1 17275094037854337644
14128692 85 18412268302695019532
14325111 11 18410856542475972000
16945 1 18410575110548979204
17844478 74 18113627785053966505
17990270 104 18339925905181128670
193761 8 17762338015893550787
19973954 147 18339362950774419508
20201158 50 18408039619524011507
21040471 1 18410573998421481376
21501502 16 18338238158905848768
23402655 69 18267848512051101925
23463225 33 18335981991342382618
23552423 10 18261115136363166606
23559900 14 17406273227782696494
241688 4 18263645065321557968
2748010 2 18338796689285084188
369184 2 18411135805544349881
5084963 1 18343584023136863088
528886 8 18339637953245964738

> <PUBCHEM_SHAPE_MULTIPOLES>
221.39
4.29
1.69
0.61
0.83
0.17
0
-0.68
0
-0.09
0
-0.03
0.01
0

> <PUBCHEM_SHAPE_SELFOVERLAP>
486.687

> <PUBCHEM_SHAPE_VOLUME>
120.1

> <PUBCHEM_COORDINATE_TYPE>
2
5
10

$$$$
