74626
  -OEChem-06212212523D

 15 15  0     0  0  0  0  0  0999 V2000
    1.5431    0.0009   -0.9719 O   0  0  0  0  0  0  0  0  0  0  0  0
    2.2918   -0.0009    1.2513 O   0  0  0  0  0  0  0  0  0  0  0  0
    0.2595    0.0004   -0.5193 C   0  0  0  0  0  0  0  0  0  0  0  0
   -0.3984    1.2082   -0.2865 C   0  0  0  0  0  0  0  0  0  0  0  0
   -0.3978   -1.2077   -0.2874 C   0  0  0  0  0  0  0  0  0  0  0  0
   -1.7135    1.2078    0.1784 C   0  0  0  0  0  0  0  0  0  0  0  0
   -1.7130   -1.2082    0.1772 C   0  0  0  0  0  0  0  0  0  0  0  0
   -2.3708   -0.0004    0.4101 C   0  0  0  0  0  0  0  0  0  0  0  0
    2.4992    0.0001    0.0480 C   0  0  0  0  0  0  0  0  0  0  0  0
    0.1075    2.1531   -0.4655 H   0  0  0  0  0  0  0  0  0  0  0  0
    0.1084   -2.1523   -0.4672 H   0  0  0  0  0  0  0  0  0  0  0  0
   -2.2258    2.1482    0.3597 H   0  0  0  0  0  0  0  0  0  0  0  0
   -2.2250   -2.1490    0.3577 H   0  0  0  0  0  0  0  0  0  0  0  0
   -3.3949   -0.0009    0.7720 H   0  0  0  0  0  0  0  0  0  0  0  0
    3.4930    0.0004   -0.4273 H   0  0  0  0  0  0  0  0  0  0  0  0
  1  3  1  0  0  0  0
  1  9  1  0  0  0  0
  2  9  2  0  0  0  0
  3  4  2  0  0  0  0
  3  5  1  0  0  0  0
  4  6  1  0  0  0  0
  4 10  1  0  0  0  0
  5  7  2  0  0  0  0
  5 11  1  0  0  0  0
  6  8  2  0  0  0  0
  6 12  1  0  0  0  0
  7  8  1  0  0  0  0
  7 13  1  0  0  0  0
  8 14  1  0  0  0  0
  9 15  1  0  0  0  0
M  END
> <PUBCHEM_COMPOUND_CID>
74626

> <PUBCHEM_CONFORMER_RMSD>
0.4

> <PUBCHEM_CONFORMER_DIVERSEORDER>
1
6
2
4
5
3

> <PUBCHEM_MMFF94_PARTIAL_CHARGES>
15
1 -0.23
10 0.15
11 0.15
12 0.15
13 0.15
14 0.15
15 0.06
2 -0.57
3 0.08
4 -0.15
5 -0.15
6 -0.15
7 -0.15
8 -0.15
9 0.66

> <PUBCHEM_EFFECTIVE_ROTOR_COUNT>
2

> <PUBCHEM_PHARMACOPHORE_FEATURES>
2
1 2 acceptor
6 3 4 5 6 7 8 rings

> <PUBCHEM_HEAVY_ATOM_COUNT>
9

> <PUBCHEM_ATOM_DEF_STEREO_COUNT>
0

> <PUBCHEM_ATOM_UDEF_STEREO_COUNT>
0

> <PUBCHEM_BOND_DEF_STEREO_COUNT>
0

> <PUBCHEM_BOND_UDEF_STEREO_COUNT>
0

> <PUBCHEM_ISOTOPIC_ATOM_COUNT>
0

> <PUBCHEM_COMPONENT_COUNT>
1

> <PUBCHEM_CACTVS_TAUTO_COUNT>
1

> <PUBCHEM_CONFORMER_ID>
0001238200000001

> <PUBCHEM_MMFF94_ENERGY>
27.8486

> <PUBCHEM_FEATURE_SELFOVERLAP>
10.148

> <PUBCHEM_SHAPE_FINGERPRINT>
10857977 72 18342459282939749099
12423570 1 7974734330056486445
15310529 11 16443353108383617053
16945 1 18410582785887574381
18185500 45 18041282178719340686
20645464 45 17918270952740033610
20653085 51 14261361261980897808
21040471 1 18266471896973885029
23552423 10 17681563850216269069
2748010 2 18049457941541868357
29004967 10 16630537214722719326
369184 2 18411691088981095915
5084963 1 18200890482015383502
54338 74 18263634220650155815

> <PUBCHEM_SHAPE_MULTIPOLES>
173.48
3.38
1.29
0.89
1.31
0
-0.1
0
-0.8
-0.68
0.05
0.39
0
0

> <PUBCHEM_SHAPE_SELFOVERLAP>
359.021

> <PUBCHEM_SHAPE_VOLUME>
97.1

> <PUBCHEM_COORDINATE_TYPE>
2
5
10

$$$$
